# generated using pymatgen
data_1004_Ag2Al
_symmetry_space_group_name_H-M   'I4/mmm'
_cell_length_a   5.93865036
_cell_length_b   5.93865036
_cell_length_c   5.93865036
_cell_angle_alpha   150.43684878
_cell_angle_beta   150.43684878
_cell_angle_gamma   42.30053255
_chemical_formula_structural   Ag2Al
_chemical_formula_sum   'Ag2 Al1'
_cell_volume   50.85991415
loop_
 _symmetry_equiv_pos_site_id
 _symmetry_equiv_pos_as_xyz
  1  'x, y, z'
loop_
 _atom_type_symbol
  Ag
  Al
loop_
 _atom_site_type_symbol
 _atom_site_label
 _atom_site_symmetry_multiplicity
 _atom_site_fract_x
 _atom_site_fract_y
 _atom_site_fract_z
 _atom_site_occupancy
  Ag  Ag0  1  0.15710786  0.15710786  0.00000000  1
  Ag  Ag1  1  0.84289214  0.84289214  0.00000000  1
  Al  Al0  1  0.50000000  0.50000000  0.00000000  1
