# generated using pymatgen
data_100_Ge3Br
_symmetry_space_group_name_H-M   'P4/mmm'
_cell_length_a   3.34953296
_cell_length_b   3.34953296
_cell_length_c   7.69031228
_cell_angle_alpha   90.00000000
_cell_angle_beta   90.00000000
_cell_angle_gamma   90.00000000
_chemical_formula_structural   Ge3Br
_chemical_formula_sum   'Br1 Ge3'
_cell_volume   86.28046696
loop_
 _symmetry_equiv_pos_site_id
 _symmetry_equiv_pos_as_xyz
  1  'x, y, z'
loop_
 _atom_type_symbol
  Br
  Ge
loop_
 _atom_site_type_symbol
 _atom_site_label
 _atom_site_symmetry_multiplicity
 _atom_site_fract_x
 _atom_site_fract_y
 _atom_site_fract_z
 _atom_site_occupancy
  Br  Br0  1  0.00000000  0.00000000  0.00000000  1
  Ge  Ge0  1  0.50000000  0.50000000  0.72186632  1
  Ge  Ge1  1  0.00000000  0.00000000  0.50000000  1
  Ge  Ge2  1  0.50000000  0.50000000  0.27813368  1
