# generated using pymatgen
data_1012_KPt
_symmetry_space_group_name_H-M   'P4/mmm'
_cell_length_a   2.94030839
_cell_length_b   4.15822300
_cell_length_c   5.04860200
_cell_angle_alpha   90.00000000
_cell_angle_beta   90.00000000
_cell_angle_gamma   45.00000000
_chemical_formula_structural   KPt
_chemical_formula_sum   'K1 Pt1'
_cell_volume   43.64724097
loop_
 _symmetry_equiv_pos_site_id
 _symmetry_equiv_pos_as_xyz
  1  'x, y, z'
loop_
 _atom_type_symbol
  K
  Pt
loop_
 _atom_site_type_symbol
 _atom_site_label
 _atom_site_symmetry_multiplicity
 _atom_site_fract_x
 _atom_site_fract_y
 _atom_site_fract_z
 _atom_site_occupancy
  K  K0  1  0.00000000  0.00000000  0.00000000  1
  Pt  Pt0  1  0.99999925  0.49999963  0.49999977  1
