# generated using pymatgen
data_1025_KPb2
_symmetry_space_group_name_H-M   'I4/mmm'
_cell_length_a   7.54998213
_cell_length_b   7.54998213
_cell_length_c   7.54998213
_cell_angle_alpha   149.78020230
_cell_angle_beta   149.78020230
_cell_angle_gamma   43.26413774
_chemical_formula_structural   KPb2
_chemical_formula_sum   'K1 Pb2'
_cell_volume   108.73427427
loop_
 _symmetry_equiv_pos_site_id
 _symmetry_equiv_pos_as_xyz
  1  'x, y, z'
loop_
 _atom_type_symbol
  K
  Pb
loop_
 _atom_site_type_symbol
 _atom_site_label
 _atom_site_symmetry_multiplicity
 _atom_site_fract_x
 _atom_site_fract_y
 _atom_site_fract_z
 _atom_site_occupancy
  K  K0  1  0.00000000  0.00000000  0.00000000  1
  Pb  Pb0  1  0.31164725  0.31164725  0.00000000  1
  Pb  Pb1  1  0.68835275  0.68835275  0.00000000  1
