# generated using pymatgen
data_1028_FeP
_symmetry_space_group_name_H-M   'R -3 m'
_cell_length_a   3.77902828
_cell_length_b   3.77902828
_cell_length_c   3.77902797
_cell_angle_alpha   41.75449838
_cell_angle_beta   41.75449838
_cell_angle_gamma   41.75448999
_chemical_formula_structural   FeP
_chemical_formula_sum   'Fe1 P1'
_cell_volume   21.63915283
loop_
 _symmetry_equiv_pos_site_id
 _symmetry_equiv_pos_as_xyz
  1  'x, y, z'
loop_
 _atom_type_symbol
  Fe
  P
loop_
 _atom_site_type_symbol
 _atom_site_label
 _atom_site_symmetry_multiplicity
 _atom_site_fract_x
 _atom_site_fract_y
 _atom_site_fract_z
 _atom_site_occupancy
  Fe  Fe0  1  0.00000000  0.00000000  0.00000000  1
  P  P0  1  0.49999963  0.49999963  0.50000019  1
