# generated using pymatgen
data_1030_CrNb2
_symmetry_space_group_name_H-M   'Fmmm'
_cell_length_a   2.81387351
_cell_length_b   6.67593832
_cell_length_c   2.81387351
_cell_angle_alpha   82.28753606
_cell_angle_beta   68.70250922
_cell_angle_gamma   97.71246394
_chemical_formula_structural   CrNb2
_chemical_formula_sum   'Cr1 Nb2'
_cell_volume   47.83621313
loop_
 _symmetry_equiv_pos_site_id
 _symmetry_equiv_pos_as_xyz
  1  'x, y, z'
loop_
 _atom_type_symbol
  Cr
  Nb
loop_
 _atom_site_type_symbol
 _atom_site_label
 _atom_site_symmetry_multiplicity
 _atom_site_fract_x
 _atom_site_fract_y
 _atom_site_fract_z
 _atom_site_occupancy
  Cr  Cr0  1  0.00000000  0.00000000  0.00000000  1
  Nb  Nb0  1  0.65639698  0.31279397  0.34360302  1
  Nb  Nb1  1  0.34360302  0.68720603  0.65639698  1
