# generated using pymatgen
data_1034_Cr3W
_symmetry_space_group_name_H-M   'P4/mmm'
_cell_length_a   2.95681197
_cell_length_b   4.17152495
_cell_length_c   4.16480635
_cell_angle_alpha   90.00000000
_cell_angle_beta   90.00000000
_cell_angle_gamma   90.00000000
_chemical_formula_structural   Cr3W
_chemical_formula_sum   'Cr3 W1'
_cell_volume   51.37044952
loop_
 _symmetry_equiv_pos_site_id
 _symmetry_equiv_pos_as_xyz
  1  'x, y, z'
loop_
 _atom_type_symbol
  Cr
  W
loop_
 _atom_site_type_symbol
 _atom_site_label
 _atom_site_symmetry_multiplicity
 _atom_site_fract_x
 _atom_site_fract_y
 _atom_site_fract_z
 _atom_site_occupancy
  Cr  Cr0  1  0.00000000  0.00000000  0.91554853  1
  Cr  Cr1  1  0.50000000  0.00000000  0.41790116  1
  Cr  Cr2  1  0.50000000  0.50000000  0.91680187  1
  W  W0  1  0.00000000  0.50000000  0.41641511  1
