# generated using pymatgen
data_1036_Au16Sr4
_symmetry_space_group_name_H-M   'I-43m'
_cell_length_a   8.45228691
_cell_length_b   8.45228691
_cell_length_c   8.45228691
_cell_angle_alpha   109.47122063
_cell_angle_beta   109.47122063
_cell_angle_gamma   109.47122063
_chemical_formula_structural   Au16Sr4
_chemical_formula_sum   'Au16 Sr4'
_cell_volume   464.83711848
loop_
 _symmetry_equiv_pos_site_id
 _symmetry_equiv_pos_as_xyz
  1  'x, y, z'
loop_
 _atom_type_symbol
  Au
  Sr
loop_
 _atom_site_type_symbol
 _atom_site_label
 _atom_site_symmetry_multiplicity
 _atom_site_fract_x
 _atom_site_fract_y
 _atom_site_fract_z
 _atom_site_occupancy
  Au  Au0  1  0.78830906  0.78830906  0.78830906  1
  Au  Au1  1  0.21169094  0.00000000  0.00000000  1
  Au  Au2  1  1.00000000  0.21169094  0.00000000  1
  Au  Au3  1  1.00000000  0.00000000  0.21169094  1
  Au  Au4  1  0.64773298  0.64773298  0.00000000  1
  Au  Au5  1  0.35226702  0.35226702  0.00000000  1
  Au  Au6  1  0.64773298  0.00000000  0.64773298  1
  Au  Au7  1  0.35226702  0.00000000  0.35226702  1
  Au  Au8  1  1.00000000  0.64773298  0.64773298  1
  Au  Au9  1  0.00000000  0.35226702  0.35226702  1
  Au  Au10  1  0.24978938  0.74978938  0.50000000  1
  Au  Au11  1  0.75021062  0.25021062  0.50000000  1
  Au  Au12  1  0.74978938  0.50000000  0.24978938  1
  Au  Au13  1  0.25021062  0.50000000  0.75021062  1
  Au  Au14  1  0.50000000  0.24978938  0.74978938  1
  Au  Au15  1  0.50000000  0.75021062  0.25021062  1
  Sr  Sr0  1  0.42846269  0.42846269  0.42846269  1
  Sr  Sr1  1  0.57153731  0.00000000  0.00000000  1
  Sr  Sr2  1  1.00000000  0.57153731  0.00000000  1
  Sr  Sr3  1  1.00000000  0.00000000  0.57153731  1
