# generated using pymatgen
data_1046_Mo2W
_symmetry_space_group_name_H-M   'I4/mmm'
_cell_length_a   3.16725252
_cell_length_b   5.26650144
_cell_length_c   3.16725252
_cell_angle_alpha   72.50047074
_cell_angle_beta   90.00000000
_cell_angle_gamma   107.49952926
_chemical_formula_structural   Mo2W
_chemical_formula_sum   'Mo2 W1'
_cell_volume   47.81590130
loop_
 _symmetry_equiv_pos_site_id
 _symmetry_equiv_pos_as_xyz
  1  'x, y, z'
loop_
 _atom_type_symbol
  Mo
  W
loop_
 _atom_site_type_symbol
 _atom_site_label
 _atom_site_symmetry_multiplicity
 _atom_site_fract_x
 _atom_site_fract_y
 _atom_site_fract_z
 _atom_site_occupancy
  Mo  Mo0  1  0.33322203  0.66644406  0.66677797  1
  Mo  Mo1  1  0.66677797  0.33355594  0.33322203  1
  W  W0  1  0.00000000  0.00000000  0.00000000  1
