# generated using pymatgen
data_1048_Cu7Pt5
_symmetry_space_group_name_H-M   'P1'
_cell_length_a   4.66882992
_cell_length_b   6.54071057
_cell_length_c   5.99900858
_cell_angle_alpha   111.71027963
_cell_angle_beta   74.99392598
_cell_angle_gamma   89.82280622
_chemical_formula_structural   Cu7Pt5
_chemical_formula_sum   'Cu7 Pt5'
_cell_volume   163.39490003
loop_
 _symmetry_equiv_pos_site_id
 _symmetry_equiv_pos_as_xyz
  1  'x, y, z'
loop_
 _atom_type_symbol
  Cu
  Pt
loop_
 _atom_site_type_symbol
 _atom_site_label
 _atom_site_symmetry_multiplicity
 _atom_site_fract_x
 _atom_site_fract_y
 _atom_site_fract_z
 _atom_site_occupancy
  Cu  Cu0  1  0.99784387  0.00238302  0.00174407  1
  Cu  Cu1  1  0.41929993  0.08782755  0.25297717  1
  Cu  Cu2  1  0.83081420  0.17220386  0.50346450  1
  Cu  Cu3  1  0.24818752  0.25224958  0.74689384  1
  Cu  Cu4  1  0.66985559  0.33244348  0.99901540  1
  Cu  Cu5  1  0.50065116  0.49272639  0.49930654  1
  Cu  Cu6  1  0.91692716  0.57711146  0.74677558  1
  Pt  Pt0  1  0.08256664  0.40260378  0.25179114  1
  Pt  Pt1  1  0.33521766  0.65648246  0.98739873  1
  Pt  Pt2  1  0.75100116  0.75281912  0.24586147  1
  Pt  Pt3  1  0.16561817  0.84113298  0.50440435  1
  Pt  Pt4  1  0.58201692  0.93001632  0.76036721  1
