# generated using pymatgen
data_1049_Fe4V2
_symmetry_space_group_name_H-M   'Cmcm'
_cell_length_a   2.46486575
_cell_length_b   6.92390972
_cell_length_c   4.03576785
_cell_angle_alpha   90.00000000
_cell_angle_beta   90.00000000
_cell_angle_gamma   79.74690676
_chemical_formula_structural   Fe4V2
_chemical_formula_sum   'Fe4 V2'
_cell_volume   67.77658195
loop_
 _symmetry_equiv_pos_site_id
 _symmetry_equiv_pos_as_xyz
  1  'x, y, z'
loop_
 _atom_type_symbol
  Fe
  V
loop_
 _atom_site_type_symbol
 _atom_site_label
 _atom_site_symmetry_multiplicity
 _atom_site_fract_x
 _atom_site_fract_y
 _atom_site_fract_z
 _atom_site_occupancy
  Fe  Fe0  1  0.00037941  0.99924119  0.00000000  1
  Fe  Fe1  1  0.22184282  0.55631437  0.50000000  1
  Fe  Fe2  1  0.56762169  0.86475662  0.50000000  1
  Fe  Fe3  1  0.65460053  0.69079894  0.00000000  1
  V  V0  1  0.31871490  0.36257020  0.00000000  1
  V  V1  1  0.90350732  0.19298535  0.50000000  1
