# generated using pymatgen
data_1056_NiSn
_symmetry_space_group_name_H-M   'P-6m2'
_cell_length_a   3.18333535
_cell_length_b   3.18331600
_cell_length_c   3.83652927
_cell_angle_alpha   90.00000000
_cell_angle_beta   90.00000000
_cell_angle_gamma   120.00021356
_chemical_formula_structural   NiSn
_chemical_formula_sum   'Ni1 Sn1'
_cell_volume   33.66901079
loop_
 _symmetry_equiv_pos_site_id
 _symmetry_equiv_pos_as_xyz
  1  'x, y, z'
loop_
 _atom_type_symbol
  Ni
  Sn
loop_
 _atom_site_type_symbol
 _atom_site_label
 _atom_site_symmetry_multiplicity
 _atom_site_fract_x
 _atom_site_fract_y
 _atom_site_fract_z
 _atom_site_occupancy
  Ni  Ni0  1  0.66666681  0.33333263  0.75000000  1
  Sn  Sn0  1  0.33333319  0.66666737  0.25000000  1
