# generated using pymatgen
data_1058_V4W2
_symmetry_space_group_name_H-M   'Pnnm'
_cell_length_a   4.16144610
_cell_length_b   7.13454760
_cell_length_c   2.80442499
_cell_angle_alpha   90.00000000
_cell_angle_beta   90.00000000
_cell_angle_gamma   90.00000000
_chemical_formula_structural   V4W2
_chemical_formula_sum   'V4 W2'
_cell_volume   83.26347691
loop_
 _symmetry_equiv_pos_site_id
 _symmetry_equiv_pos_as_xyz
  1  'x, y, z'
loop_
 _atom_type_symbol
  V
  W
loop_
 _atom_site_type_symbol
 _atom_site_label
 _atom_site_symmetry_multiplicity
 _atom_site_fract_x
 _atom_site_fract_y
 _atom_site_fract_z
 _atom_site_occupancy
  V  V0  1  0.06154318  0.36284628  0.00000000  1
  V  V1  1  0.43845682  0.86284628  0.50000000  1
  V  V2  1  0.56154318  0.13715372  0.50000000  1
  V  V3  1  0.93845682  0.63715372  0.00000000  1
  W  W0  1  0.00000000  0.00000000  0.00000000  1
  W  W1  1  0.50000000  0.50000000  0.50000000  1
