# generated using pymatgen
data_1064_EuU
_symmetry_space_group_name_H-M   'Fm -3 m'
_cell_length_a   4.21566760
_cell_length_b   4.21566760
_cell_length_c   4.21566760
_cell_angle_alpha   60.00000000
_cell_angle_beta   60.00000000
_cell_angle_gamma   60.00000000
_chemical_formula_structural   EuU
_chemical_formula_sum   'Eu1 U1'
_cell_volume   52.97660015
loop_
 _symmetry_equiv_pos_site_id
 _symmetry_equiv_pos_as_xyz
  1  'x, y, z'
loop_
 _atom_type_symbol
  Eu
  U
loop_
 _atom_site_type_symbol
 _atom_site_label
 _atom_site_symmetry_multiplicity
 _atom_site_fract_x
 _atom_site_fract_y
 _atom_site_fract_z
 _atom_site_occupancy
  Eu  Eu0  1  0.00000000  0.00000000  0.00000000  1
  U  U0  1  0.49999963  0.49999963  0.49999963  1
