# generated using pymatgen
data_1067_CuGe
_symmetry_space_group_name_H-M   'P4/mmm'
_cell_length_a   3.97551081
_cell_length_b   3.97551081
_cell_length_c   3.78394885
_cell_angle_alpha   90.00000000
_cell_angle_beta   90.00000000
_cell_angle_gamma   90.00000000
_chemical_formula_structural   CuGe
_chemical_formula_sum   'Cu2 Ge2'
_cell_volume   59.80412417
loop_
 _symmetry_equiv_pos_site_id
 _symmetry_equiv_pos_as_xyz
  1  'x, y, z'
loop_
 _atom_type_symbol
  Cu
  Ge
loop_
 _atom_site_type_symbol
 _atom_site_label
 _atom_site_symmetry_multiplicity
 _atom_site_fract_x
 _atom_site_fract_y
 _atom_site_fract_z
 _atom_site_occupancy
  Cu  Cu0  1  0.25000000  0.75000000  0.00000000  1
  Cu  Cu1  1  0.75000000  0.25000000  0.00000000  1
  Ge  Ge0  1  0.25000000  0.25000000  0.49871623  1
  Ge  Ge1  1  0.75000000  0.75000000  0.50128377  1
