# generated using pymatgen
data_1069_As2Br
_symmetry_space_group_name_H-M   'I4/mmm'
_cell_length_a   6.46860041
_cell_length_b   6.46860041
_cell_length_c   6.46860041
_cell_angle_alpha   146.83222644
_cell_angle_beta   146.83222644
_cell_angle_gamma   47.61226273
_chemical_formula_structural   As2Br
_chemical_formula_sum   'As2 Br1'
_cell_volume   80.69334378
loop_
 _symmetry_equiv_pos_site_id
 _symmetry_equiv_pos_as_xyz
  1  'x, y, z'
loop_
 _atom_type_symbol
  As
  Br
loop_
 _atom_site_type_symbol
 _atom_site_label
 _atom_site_symmetry_multiplicity
 _atom_site_fract_x
 _atom_site_fract_y
 _atom_site_fract_z
 _atom_site_occupancy
  As  As0  1  0.27755585  0.27755585  0.00000000  1
  As  As1  1  0.72244415  0.72244415  0.00000000  1
  Br  Br0  1  0.50000000  0.50000000  0.00000000  1
