# generated using pymatgen
data_1078_Pt24Ge16
_symmetry_space_group_name_H-M   'Pnma'
_cell_length_a   6.97150700
_cell_length_b   12.38828600
_cell_length_c   7.64625300
_cell_angle_alpha   90.00000000
_cell_angle_beta   90.00000000
_cell_angle_gamma   90.00000000
_chemical_formula_structural   Pt24Ge16
_chemical_formula_sum   'Ge16 Pt24'
_cell_volume   660.36881290
loop_
 _symmetry_equiv_pos_site_id
 _symmetry_equiv_pos_as_xyz
  1  'x, y, z'
loop_
 _atom_type_symbol
  Ge
  Pt
loop_
 _atom_site_type_symbol
 _atom_site_label
 _atom_site_symmetry_multiplicity
 _atom_site_fract_x
 _atom_site_fract_y
 _atom_site_fract_z
 _atom_site_occupancy
  Ge  Ge0  1  0.87470190  0.24533741  0.02792087  1
  Ge  Ge1  1  0.62529813  0.74533716  0.02792087  1
  Ge  Ge2  1  0.12759509  0.00614936  0.24999959  1
  Ge  Ge3  1  0.62131047  0.00975599  0.24999959  1
  Ge  Ge4  1  0.37240444  0.50614992  0.24999959  1
  Ge  Ge5  1  0.87868956  0.50975655  0.24999959  1
  Ge  Ge6  1  0.87470190  0.24533741  0.47207961  1
  Ge  Ge7  1  0.62529813  0.74533716  0.47207961  1
  Ge  Ge8  1  0.37470237  0.25466234  0.52792134  1
  Ge  Ge9  1  0.12529716  0.75466290  0.52792134  1
  Ge  Ge10  1  0.12131094  0.49024376  0.75000006  1
  Ge  Ge11  1  0.62759606  0.49385039  0.75000006  1
  Ge  Ge12  1  0.37868859  0.99024351  0.75000006  1
  Ge  Ge13  1  0.87240398  0.99385014  0.75000006  1
  Ge  Ge14  1  0.37470237  0.25466234  0.97207878  1
  Ge  Ge15  1  0.12529716  0.75466290  0.97207878  1
  Pt  Pt0  1  0.12292895  0.40880392  0.05845478  1
  Pt  Pt1  1  0.37707058  0.90880448  0.05845478  1
  Pt  Pt2  1  0.62823150  0.41162110  0.05939380  1
  Pt  Pt3  1  0.87176853  0.91162085  0.05939380  1
  Pt  Pt4  1  0.15592039  0.21547855  0.24999959  1
  Pt  Pt5  1  0.59022537  0.21762252  0.24999959  1
  Pt  Pt6  1  0.34408058  0.71547831  0.24999959  1
  Pt  Pt7  1  0.90977466  0.71762227  0.24999959  1
  Pt  Pt8  1  0.62823150  0.41162110  0.44060537  1
  Pt  Pt9  1  0.87176853  0.91162085  0.44060537  1
  Pt  Pt10  1  0.12292895  0.40880392  0.44154439  1
  Pt  Pt11  1  0.37707058  0.90880448  0.44154439  1
  Pt  Pt12  1  0.62292992  0.09119583  0.55845526  1
  Pt  Pt13  1  0.87707011  0.59119558  0.55845526  1
  Pt  Pt14  1  0.12823197  0.08837865  0.55939428  1
  Pt  Pt15  1  0.37176756  0.58837921  0.55939428  1
  Pt  Pt16  1  0.09022584  0.28237804  0.75000006  1
  Pt  Pt17  1  0.65591992  0.28452120  0.75000006  1
  Pt  Pt18  1  0.40977370  0.78237779  0.75000006  1
  Pt  Pt19  1  0.84408011  0.78452175  0.75000006  1
  Pt  Pt20  1  0.12823197  0.08837865  0.94060585  1
  Pt  Pt21  1  0.37176756  0.58837921  0.94060585  1
  Pt  Pt22  1  0.62292992  0.09119583  0.94154487  1
  Pt  Pt23  1  0.87707011  0.59119558  0.94154487  1
