# generated using pymatgen
data_1081_Fe3Na
_symmetry_space_group_name_H-M   'Pm -3 m'
_cell_length_a   3.80066900
_cell_length_b   3.80066900
_cell_length_c   3.80066900
_cell_angle_alpha   90.00000000
_cell_angle_beta   90.00000000
_cell_angle_gamma   90.00000000
_chemical_formula_structural   Fe3Na
_chemical_formula_sum   'Fe3 Na1'
_cell_volume   54.90098618
loop_
 _symmetry_equiv_pos_site_id
 _symmetry_equiv_pos_as_xyz
  1  'x, y, z'
loop_
 _atom_type_symbol
  Fe
  Na
loop_
 _atom_site_type_symbol
 _atom_site_label
 _atom_site_symmetry_multiplicity
 _atom_site_fract_x
 _atom_site_fract_y
 _atom_site_fract_z
 _atom_site_occupancy
  Fe  Fe0  1  0.49999886  0.49999886  0.00000000  1
  Fe  Fe1  1  0.49999886  0.00000000  0.49999886  1
  Fe  Fe2  1  0.00000000  0.49999886  0.49999886  1
  Na  Na0  1  0.00000000  0.00000000  0.00000000  1
