# generated using pymatgen
data_1083_Ba3Ta
_symmetry_space_group_name_H-M   'P4/mmm'
_cell_length_a   3.77097207
_cell_length_b   3.77097207
_cell_length_c   11.81211174
_cell_angle_alpha   90.00000000
_cell_angle_beta   90.00000000
_cell_angle_gamma   90.00100883
_chemical_formula_structural   Ba3Ta
_chemical_formula_sum   'Ba3 Ta1'
_cell_volume   167.97095021
loop_
 _symmetry_equiv_pos_site_id
 _symmetry_equiv_pos_as_xyz
  1  'x, y, z'
loop_
 _atom_type_symbol
  Ba
  Ta
loop_
 _atom_site_type_symbol
 _atom_site_label
 _atom_site_symmetry_multiplicity
 _atom_site_fract_x
 _atom_site_fract_y
 _atom_site_fract_z
 _atom_site_occupancy
  Ba  Ba0  1  0.00000000  0.00000000  0.05739019  1
  Ba  Ba1  1  0.50000000  0.50000000  0.75000000  1
  Ba  Ba2  1  0.00000000  0.00000000  0.44260981  1
  Ta  Ta0  1  0.50000000  0.50000000  0.25000000  1
