# generated using pymatgen
data_1085_Fe4As6
_symmetry_space_group_name_H-M   'Fdd2'
_cell_length_a   7.72335161
_cell_length_b   7.12199706
_cell_length_c   5.32991842
_cell_angle_alpha   75.13173254
_cell_angle_beta   63.03243962
_cell_angle_gamma   41.83582784
_chemical_formula_structural   Fe4As6
_chemical_formula_sum   'As6 Fe4'
_cell_volume   172.64804722
loop_
 _symmetry_equiv_pos_site_id
 _symmetry_equiv_pos_as_xyz
  1  'x, y, z'
loop_
 _atom_type_symbol
  As
  Fe
loop_
 _atom_site_type_symbol
 _atom_site_label
 _atom_site_symmetry_multiplicity
 _atom_site_fract_x
 _atom_site_fract_y
 _atom_site_fract_z
 _atom_site_occupancy
  As  As0  1  0.30648028  0.64259754  0.37715107  1
  As  As1  1  0.67377111  0.37715107  0.64259754  1
  As  As2  1  0.37284893  0.07622889  0.44351972  1
  As  As3  1  0.10740246  0.44351972  0.07622889  1
  As  As4  1  0.87854938  0.12145062  0.12145062  1
  As  As5  1  0.62854938  0.87145062  0.87145062  1
  Fe  Fe0  1  0.67322557  0.61771754  0.24108323  1
  Fe  Fe1  1  0.46797367  0.24108323  0.61771754  1
  Fe  Fe2  1  0.50891677  0.28202633  0.07677443  1
  Fe  Fe3  1  0.13228246  0.07677443  0.28202633  1
