# generated using pymatgen
data_1086_Al2Rh
_symmetry_space_group_name_H-M   'I4/mmm'
_cell_length_a   4.74390474
_cell_length_b   4.74390474
_cell_length_c   4.54212147
_cell_angle_alpha   90.00000000
_cell_angle_beta   90.00000000
_cell_angle_gamma   122.73952956
_chemical_formula_structural   Al2Rh
_chemical_formula_sum   'Al4 Rh2'
_cell_volume   85.98007975
loop_
 _symmetry_equiv_pos_site_id
 _symmetry_equiv_pos_as_xyz
  1  'x, y, z'
loop_
 _atom_type_symbol
  Al
  Rh
loop_
 _atom_site_type_symbol
 _atom_site_label
 _atom_site_symmetry_multiplicity
 _atom_site_fract_x
 _atom_site_fract_y
 _atom_site_fract_z
 _atom_site_occupancy
  Al  Al0  1  0.59097540  0.91137691  0.25000000  1
  Al  Al1  1  0.40902460  0.08862309  0.75000000  1
  Al  Al2  1  0.91137691  0.59097540  0.25000000  1
  Al  Al3  1  0.08862309  0.40902460  0.75000000  1
  Rh  Rh0  1  0.25072549  0.25072549  0.25000000  1
  Rh  Rh1  1  0.74927451  0.74927451  0.75000000  1
