# generated using pymatgen
data_1098_Pt2Sn2
_symmetry_space_group_name_H-M   'P4/nmm'
_cell_length_a   4.90283689
_cell_length_b   4.90283689
_cell_length_c   3.64095706
_cell_angle_alpha   90.00000000
_cell_angle_beta   90.00000000
_cell_angle_gamma   90.00000000
_chemical_formula_structural   Pt2Sn2
_chemical_formula_sum   'Pt2 Sn2'
_cell_volume   87.52063246
loop_
 _symmetry_equiv_pos_site_id
 _symmetry_equiv_pos_as_xyz
  1  'x, y, z'
loop_
 _atom_type_symbol
  Pt
  Sn
loop_
 _atom_site_type_symbol
 _atom_site_label
 _atom_site_symmetry_multiplicity
 _atom_site_fract_x
 _atom_site_fract_y
 _atom_site_fract_z
 _atom_site_occupancy
  Pt  Pt0  1  0.25000000  0.25000000  0.22649837  1
  Pt  Pt1  1  0.75000000  0.75000000  0.77350163  1
  Sn  Sn0  1  0.25000000  0.75000000  0.00000000  1
  Sn  Sn1  1  0.75000000  0.25000000  0.00000000  1
