# generated using pymatgen
data_1102_MoSr2
_symmetry_space_group_name_H-M   'I4/mmm'
_cell_length_a   7.76203930
_cell_length_b   7.76203930
_cell_length_c   7.76203930
_cell_angle_alpha   151.26240078
_cell_angle_beta   151.26240078
_cell_angle_gamma   41.09143306
_chemical_formula_structural   MoSr2
_chemical_formula_sum   'Mo1 Sr2'
_cell_volume   107.87415404
loop_
 _symmetry_equiv_pos_site_id
 _symmetry_equiv_pos_as_xyz
  1  'x, y, z'
loop_
 _atom_type_symbol
  Mo
  Sr
loop_
 _atom_site_type_symbol
 _atom_site_label
 _atom_site_symmetry_multiplicity
 _atom_site_fract_x
 _atom_site_fract_y
 _atom_site_fract_z
 _atom_site_occupancy
  Mo  Mo0  1  0.00000000  0.00000000  0.00000000  1
  Sr  Sr0  1  0.63170371  0.63170371  0.00000000  1
  Sr  Sr1  1  0.36829629  0.36829629  0.00000000  1
