# generated using pymatgen
data_1104_PdRh4
_symmetry_space_group_name_H-M   'I4/mmm'
_cell_length_a   6.65596428
_cell_length_b   3.60604352
_cell_length_c   3.60604352
_cell_angle_alpha   90.00000000
_cell_angle_beta   74.28287703
_cell_angle_gamma   105.71712297
_chemical_formula_structural   PdRh4
_chemical_formula_sum   'Pd1 Rh4'
_cell_volume   79.94813168
loop_
 _symmetry_equiv_pos_site_id
 _symmetry_equiv_pos_as_xyz
  1  'x, y, z'
loop_
 _atom_type_symbol
  Pd
  Rh
loop_
 _atom_site_type_symbol
 _atom_site_label
 _atom_site_symmetry_multiplicity
 _atom_site_fract_x
 _atom_site_fract_y
 _atom_site_fract_z
 _atom_site_occupancy
  Pd  Pd0  1  0.00000000  0.00000000  0.00000000  1
  Rh  Rh0  1  0.50000000  0.75000000  0.75000000  1
  Rh  Rh1  1  0.80329296  0.40164648  0.59835352  1
  Rh  Rh2  1  0.19670704  0.59835352  0.40164648  1
  Rh  Rh3  1  0.50000000  0.25000000  0.25000000  1
