# generated using pymatgen
data_1108_WSb4
_symmetry_space_group_name_H-M   'Im -3 m'
_cell_length_a   5.65640008
_cell_length_b   5.65640008
_cell_length_c   5.65640008
_cell_angle_alpha   109.47122063
_cell_angle_beta   109.47122063
_cell_angle_gamma   109.47122063
_chemical_formula_structural   WSb4
_chemical_formula_sum   'Sb4 W1'
_cell_volume   139.31518915
loop_
 _symmetry_equiv_pos_site_id
 _symmetry_equiv_pos_as_xyz
  1  'x, y, z'
loop_
 _atom_type_symbol
  Sb
  W
loop_
 _atom_site_type_symbol
 _atom_site_label
 _atom_site_symmetry_multiplicity
 _atom_site_fract_x
 _atom_site_fract_y
 _atom_site_fract_z
 _atom_site_occupancy
  Sb  Sb0  1  0.00000000  0.50000000  0.00000000  1
  Sb  Sb1  1  0.50000000  0.50000000  0.50000000  1
  Sb  Sb2  1  0.00000000  0.00000000  0.50000000  1
  Sb  Sb3  1  0.50000000  0.00000000  0.00000000  1
  W  W0  1  0.00000000  0.00000000  0.00000000  1
