# generated using pymatgen
data_1110_Ag6V10
_symmetry_space_group_name_H-M   'I4/mcm'
_cell_length_a   7.59417139
_cell_length_b   7.59417139
_cell_length_c   7.59082183
_cell_angle_alpha   96.08685117
_cell_angle_beta   96.08685117
_cell_angle_gamma   142.02236884
_chemical_formula_structural   Ag6V10
_chemical_formula_sum   'Ag6 V10'
_cell_volume   254.68023134
loop_
 _symmetry_equiv_pos_site_id
 _symmetry_equiv_pos_as_xyz
  1  'x, y, z'
loop_
 _atom_type_symbol
  Ag
  V
loop_
 _atom_site_type_symbol
 _atom_site_label
 _atom_site_symmetry_multiplicity
 _atom_site_fract_x
 _atom_site_fract_y
 _atom_site_fract_z
 _atom_site_occupancy
  Ag  Ag0  1  0.18078214  0.32058526  0.50069810  1
  Ag  Ag1  1  0.25018593  0.25020611  0.99996624  1
  Ag  Ag2  1  0.32032231  0.82032231  0.14070461  1
  Ag  Ag3  1  0.68086247  0.18086247  0.86086787  1
  Ag  Ag4  1  0.75020611  0.75018593  0.99996624  1
  Ag  Ag5  1  0.82058526  0.68078214  0.50069810  1
  V  V0  1  0.06683102  0.75215342  0.81831392  1
  V  V1  1  0.24818098  0.06634699  0.31435622  1
  V  V2  1  0.25036463  0.75036463  0.50058410  1
  V  V3  1  0.25215342  0.56683102  0.81831392  1
  V  V4  1  0.43464222  0.25190391  0.68588502  1
  V  V5  1  0.56634699  0.74818098  0.31435622  1
  V  V6  1  0.74838755  0.43439380  0.18277832  1
  V  V7  1  0.75051792  0.25051792  0.50051445  1
  V  V8  1  0.75190391  0.93464222  0.68588502  1
  V  V9  1  0.93439380  0.24838755  0.18277832  1
