# generated using pymatgen
data_1111_Ag7Al5
_symmetry_space_group_name_H-M   'P1'
_cell_length_a   6.49881517
_cell_length_b   6.37767258
_cell_length_c   5.63739262
_cell_angle_alpha   114.34271548
_cell_angle_beta   101.52363984
_cell_angle_gamma   74.10467536
_chemical_formula_structural   Ag7Al5
_chemical_formula_sum   'Ag7 Al5'
_cell_volume   203.73332102
loop_
 _symmetry_equiv_pos_site_id
 _symmetry_equiv_pos_as_xyz
  1  'x, y, z'
loop_
 _atom_type_symbol
  Ag
  Al
loop_
 _atom_site_type_symbol
 _atom_site_label
 _atom_site_symmetry_multiplicity
 _atom_site_fract_x
 _atom_site_fract_y
 _atom_site_fract_z
 _atom_site_occupancy
  Ag  Ag0  1  0.00609598  0.98599265  0.99103742  1
  Ag  Ag1  1  0.32236153  0.15684915  0.42707608  1
  Ag  Ag2  1  0.66648726  0.31880781  0.82703743  1
  Ag  Ag3  1  0.01100567  0.51039728  0.24642170  1
  Ag  Ag4  1  0.33203372  0.67859210  0.66520202  1
  Ag  Ag5  1  0.66117189  0.83690550  0.08722262  1
  Ag  Ag6  1  0.66796508  0.34711909  0.34022084  1
  Al  Al0  1  0.99280677  0.00440378  0.49830793  1
  Al  Al1  1  0.33169778  0.17060954  0.92938356  1
  Al  Al2  1  0.00098909  0.49671295  0.74603986  1
  Al  Al3  1  0.33920054  0.66111784  0.15734188  1
  Al  Al4  1  0.66818469  0.83249231  0.58470866  1
