# generated using pymatgen
data_1112_Cr3Ta
_symmetry_space_group_name_H-M   'Immm'
_cell_length_a   4.24911407
_cell_length_b   4.93202321
_cell_length_c   2.98750090
_cell_angle_alpha   72.37007540
_cell_angle_beta   90.00000000
_cell_angle_gamma   115.51629968
_chemical_formula_structural   Cr3Ta
_chemical_formula_sum   'Cr3 Ta1'
_cell_volume   53.22475195
loop_
 _symmetry_equiv_pos_site_id
 _symmetry_equiv_pos_as_xyz
  1  'x, y, z'
loop_
 _atom_type_symbol
  Cr
  Ta
loop_
 _atom_site_type_symbol
 _atom_site_label
 _atom_site_symmetry_multiplicity
 _atom_site_fract_x
 _atom_site_fract_y
 _atom_site_fract_z
 _atom_site_occupancy
  Cr  Cr0  1  0.00817133  0.01634266  0.99182867  1
  Cr  Cr1  1  0.25000000  0.50000000  0.25000000  1
  Cr  Cr2  1  0.49182867  0.98365734  0.50817133  1
  Ta  Ta0  1  0.75000000  0.50000000  0.75000000  1
