# generated using pymatgen
data_1113_IrAs5
_symmetry_space_group_name_H-M   'F-43m'
_cell_length_a   5.43458956
_cell_length_b   5.43458956
_cell_length_c   5.43458956
_cell_angle_alpha   60.00000000
_cell_angle_beta   60.00000000
_cell_angle_gamma   60.00000000
_chemical_formula_structural   IrAs5
_chemical_formula_sum   'As5 Ir1'
_cell_volume   113.49722740
loop_
 _symmetry_equiv_pos_site_id
 _symmetry_equiv_pos_as_xyz
  1  'x, y, z'
loop_
 _atom_type_symbol
  As
  Ir
loop_
 _atom_site_type_symbol
 _atom_site_label
 _atom_site_symmetry_multiplicity
 _atom_site_fract_x
 _atom_site_fract_y
 _atom_site_fract_z
 _atom_site_occupancy
  As  As0  1  0.75000000  0.75000000  0.75000000  1
  As  As1  1  0.37541492  0.37541492  0.87375523  1
  As  As2  1  0.37541492  0.37541492  0.37541492  1
  As  As3  1  0.87375523  0.37541492  0.37541492  1
  As  As4  1  0.37541492  0.87375523  0.37541492  1
  Ir  Ir0  1  0.00000000  0.00000000  0.00000000  1
