# generated using pymatgen
data_1114_Pb2V
_symmetry_space_group_name_H-M   'Fm -3 m'
_cell_length_a   4.80230054
_cell_length_b   4.80230054
_cell_length_c   4.80230054
_cell_angle_alpha   60.00000000
_cell_angle_beta   60.00000000
_cell_angle_gamma   60.00000000
_chemical_formula_structural   Pb2V
_chemical_formula_sum   'Pb2 V1'
_cell_volume   78.31284664
loop_
 _symmetry_equiv_pos_site_id
 _symmetry_equiv_pos_as_xyz
  1  'x, y, z'
loop_
 _atom_type_symbol
  Pb
  V
loop_
 _atom_site_type_symbol
 _atom_site_label
 _atom_site_symmetry_multiplicity
 _atom_site_fract_x
 _atom_site_fract_y
 _atom_site_fract_z
 _atom_site_occupancy
  Pb  Pb0  1  0.75000000  0.75000000  0.75000000  1
  Pb  Pb1  1  0.25000000  0.25000000  0.25000000  1
  V  V0  1  0.00000000  0.00000000  0.00000000  1
