# generated using pymatgen
data_1116_Ir2Ta4
_symmetry_space_group_name_H-M   'Imma'
_cell_length_a   2.81881471
_cell_length_b   3.90990396
_cell_length_c   20.28697851
_cell_angle_alpha   90.00000000
_cell_angle_beta   90.00000000
_cell_angle_gamma   90.00000000
_chemical_formula_structural   Ir2Ta4
_chemical_formula_sum   'Ir4 Ta8'
_cell_volume   223.58877070
loop_
 _symmetry_equiv_pos_site_id
 _symmetry_equiv_pos_as_xyz
  1  'x, y, z'
loop_
 _atom_type_symbol
  Ir
  Ta
loop_
 _atom_site_type_symbol
 _atom_site_label
 _atom_site_symmetry_multiplicity
 _atom_site_fract_x
 _atom_site_fract_y
 _atom_site_fract_z
 _atom_site_occupancy
  Ir  Ir0  1  0.00000000  0.25000000  0.61754834  1
  Ir  Ir1  1  0.00000000  0.75000000  0.38245166  1
  Ir  Ir2  1  0.50000000  0.75000000  0.11754834  1
  Ir  Ir3  1  0.50000000  0.25000000  0.88245166  1
  Ta  Ta0  1  0.00000000  0.25000000  0.05188238  1
  Ta  Ta1  1  0.00000000  0.75000000  0.94811762  1
  Ta  Ta2  1  0.50000000  0.75000000  0.55188238  1
  Ta  Ta3  1  0.50000000  0.25000000  0.44811762  1
  Ta  Ta4  1  0.00000000  0.25000000  0.18835497  1
  Ta  Ta5  1  0.00000000  0.75000000  0.81164503  1
  Ta  Ta6  1  0.50000000  0.75000000  0.68835497  1
  Ta  Ta7  1  0.50000000  0.25000000  0.31164503  1
