# generated using pymatgen
data_1128_Ni5Sb4
_symmetry_space_group_name_H-M   'I4/mmm'
_cell_length_a   6.56459911
_cell_length_b   6.56459911
_cell_length_c   6.56459911
_cell_angle_alpha   94.81636787
_cell_angle_beta   94.81636787
_cell_angle_gamma   146.31248212
_chemical_formula_structural   Ni5Sb4
_chemical_formula_sum   'Ni5 Sb4'
_cell_volume   150.17947489
loop_
 _symmetry_equiv_pos_site_id
 _symmetry_equiv_pos_as_xyz
  1  'x, y, z'
loop_
 _atom_type_symbol
  Ni
  Sb
loop_
 _atom_site_type_symbol
 _atom_site_label
 _atom_site_symmetry_multiplicity
 _atom_site_fract_x
 _atom_site_fract_y
 _atom_site_fract_z
 _atom_site_occupancy
  Ni  Ni0  1  0.00000000  0.00000000  0.00000000  1
  Ni  Ni1  1  0.66884367  0.33115633  0.00000000  1
  Ni  Ni2  1  0.33115633  0.66884367  0.00000000  1
  Ni  Ni3  1  0.33115633  0.33115633  0.66231265  1
  Ni  Ni4  1  0.66884367  0.66884367  0.33768735  1
  Sb  Sb0  1  0.71433156  1.00000000  0.71433156  1
  Sb  Sb1  1  0.28566844  1.00000000  0.28566844  1
  Sb  Sb2  1  0.00000000  0.28566844  0.28566844  1
  Sb  Sb3  1  0.00000000  0.71433156  0.71433156  1
