# generated using pymatgen
data_1131_Cu8Ge
_symmetry_space_group_name_H-M   'I4/mmm'
_cell_length_a   5.79255407
_cell_length_b   5.79255407
_cell_length_c   5.79255407
_cell_angle_alpha   95.82406851
_cell_angle_beta   95.82406851
_cell_angle_gamma   142.84946378
_chemical_formula_structural   Cu8Ge
_chemical_formula_sum   'Cu8 Ge1'
_cell_volume   111.26246465
loop_
 _symmetry_equiv_pos_site_id
 _symmetry_equiv_pos_as_xyz
  1  'x, y, z'
loop_
 _atom_type_symbol
  Cu
  Ge
loop_
 _atom_site_type_symbol
 _atom_site_label
 _atom_site_symmetry_multiplicity
 _atom_site_fract_x
 _atom_site_fract_y
 _atom_site_fract_z
 _atom_site_occupancy
  Cu  Cu0  1  0.33169819  0.66830181  0.00000000  1
  Cu  Cu1  1  0.66830181  0.33169819  0.00000000  1
  Cu  Cu2  1  0.00000000  0.33578818  0.33578818  1
  Cu  Cu3  1  0.66830181  0.66830181  0.33660363  1
  Cu  Cu4  1  0.33578818  0.00000000  0.33578818  1
  Cu  Cu5  1  0.33169819  0.33169819  0.66339637  1
  Cu  Cu6  1  1.00000000  0.66421182  0.66421182  1
  Cu  Cu7  1  0.66421182  0.00000000  0.66421182  1
  Ge  Ge0  1  0.00000000  0.00000000  0.00000000  1
