# generated using pymatgen
data_1133_Mn2Sn4
_symmetry_space_group_name_H-M   'I4/mcm'
_cell_length_a   5.39657359
_cell_length_b   5.39657359
_cell_length_c   5.39657359
_cell_angle_alpha   104.48511840
_cell_angle_beta   104.48511840
_cell_angle_gamma   119.98299373
_chemical_formula_structural   Mn2Sn4
_chemical_formula_sum   'Mn2 Sn4'
_cell_volume   117.88342752
loop_
 _symmetry_equiv_pos_site_id
 _symmetry_equiv_pos_as_xyz
  1  'x, y, z'
loop_
 _atom_type_symbol
  Mn
  Sn
loop_
 _atom_site_type_symbol
 _atom_site_label
 _atom_site_symmetry_multiplicity
 _atom_site_fract_x
 _atom_site_fract_y
 _atom_site_fract_z
 _atom_site_occupancy
  Mn  Mn0  1  0.75000000  0.75000000  0.00000000  1
  Mn  Mn1  1  0.25000000  0.25000000  0.00000000  1
  Sn  Sn0  1  0.33565917  0.16434083  0.50000000  1
  Sn  Sn1  1  0.66434083  0.83565917  0.50000000  1
  Sn  Sn2  1  0.16434083  0.66434083  0.82868165  1
  Sn  Sn3  1  0.83565917  0.33565917  0.17131835  1
