# generated using pymatgen
data_1134_Fe2Pb6
_symmetry_space_group_name_H-M   'Cmcm'
_cell_length_a   6.11147669
_cell_length_b   6.11147669
_cell_length_c   4.99649472
_cell_angle_alpha   90.00000000
_cell_angle_beta   90.00000000
_cell_angle_gamma   118.35132072
_chemical_formula_structural   Fe2Pb6
_chemical_formula_sum   'Fe2 Pb6'
_cell_volume   164.23520624
loop_
 _symmetry_equiv_pos_site_id
 _symmetry_equiv_pos_as_xyz
  1  'x, y, z'
loop_
 _atom_type_symbol
  Fe
  Pb
loop_
 _atom_site_type_symbol
 _atom_site_label
 _atom_site_symmetry_multiplicity
 _atom_site_fract_x
 _atom_site_fract_y
 _atom_site_fract_z
 _atom_site_occupancy
  Fe  Fe0  1  0.63997834  0.36002166  0.75000000  1
  Fe  Fe1  1  0.36002166  0.63997834  0.25000000  1
  Pb  Pb0  1  0.16395248  0.83604752  0.75000000  1
  Pb  Pb1  1  0.83604752  0.16395248  0.25000000  1
  Pb  Pb2  1  0.64924906  0.83339254  0.75000000  1
  Pb  Pb3  1  0.35075094  0.16660746  0.25000000  1
  Pb  Pb4  1  0.83339254  0.64924906  0.25000000  1
  Pb  Pb5  1  0.16660746  0.35075094  0.75000000  1
