# generated using pymatgen
data_1136_Mo4Pb8
_symmetry_space_group_name_H-M   'Pnma'
_cell_length_a   5.42084465
_cell_length_b   5.56531543
_cell_length_c   10.00593036
_cell_angle_alpha   90.00000000
_cell_angle_beta   90.00000000
_cell_angle_gamma   90.00000000
_chemical_formula_structural   Mo4Pb8
_chemical_formula_sum   'Mo4 Pb8'
_cell_volume   301.86601506
loop_
 _symmetry_equiv_pos_site_id
 _symmetry_equiv_pos_as_xyz
  1  'x, y, z'
loop_
 _atom_type_symbol
  Mo
  Pb
loop_
 _atom_site_type_symbol
 _atom_site_label
 _atom_site_symmetry_multiplicity
 _atom_site_fract_x
 _atom_site_fract_y
 _atom_site_fract_z
 _atom_site_occupancy
  Mo  Mo0  1  0.25000000  0.58507495  0.38129392  1
  Mo  Mo1  1  0.75000000  0.91492505  0.88129392  1
  Mo  Mo2  1  0.25000000  0.08507495  0.11870608  1
  Mo  Mo3  1  0.75000000  0.41492505  0.61870608  1
  Pb  Pb0  1  0.25000000  0.98622103  0.83561094  1
  Pb  Pb1  1  0.75000000  0.51377897  0.33561094  1
  Pb  Pb2  1  0.25000000  0.48622103  0.66438906  1
  Pb  Pb3  1  0.75000000  0.01377897  0.16438906  1
  Pb  Pb4  1  0.25000000  0.08404957  0.41455705  1
  Pb  Pb5  1  0.75000000  0.41595043  0.91455705  1
  Pb  Pb6  1  0.25000000  0.58404957  0.08544295  1
  Pb  Pb7  1  0.75000000  0.91595043  0.58544295  1
