# generated using pymatgen
data_1138_Au2Mn6
_symmetry_space_group_name_H-M   'Cmcm'
_cell_length_a   5.57281618
_cell_length_b   5.64281792
_cell_length_c   4.58977715
_cell_angle_alpha   90.00000000
_cell_angle_beta   90.00000000
_cell_angle_gamma   120.41640123
_chemical_formula_structural   Au2Mn6
_chemical_formula_sum   'Au2 Mn6'
_cell_volume   124.46733178
loop_
 _symmetry_equiv_pos_site_id
 _symmetry_equiv_pos_as_xyz
  1  'x, y, z'
loop_
 _atom_type_symbol
  Au
  Mn
loop_
 _atom_site_type_symbol
 _atom_site_label
 _atom_site_symmetry_multiplicity
 _atom_site_fract_x
 _atom_site_fract_y
 _atom_site_fract_z
 _atom_site_occupancy
  Au  Au0  1  0.97147848  0.48573924  0.00000000  1
  Au  Au1  1  0.36185485  0.68092743  0.50000000  1
  Mn  Mn0  1  0.99927338  0.99963669  0.00000000  1
  Mn  Mn1  1  0.47874678  0.48318852  0.00000000  1
  Mn  Mn2  1  0.47874678  0.99555826  0.00000000  1
  Mn  Mn3  1  0.33405996  0.16702998  0.50000000  1
  Mn  Mn4  1  0.85458655  0.68347815  0.50000000  1
  Mn  Mn5  1  0.85458655  0.17110840  0.50000000  1
