# generated using pymatgen
data_1139_AuIn8
_symmetry_space_group_name_H-M   'I4/mmm'
_cell_length_a   7.38562928
_cell_length_b   7.38562928
_cell_length_c   7.38562928
_cell_angle_alpha   95.88957206
_cell_angle_beta   95.88957206
_cell_angle_gamma   142.63419830
_chemical_formula_structural   AuIn8
_chemical_formula_sum   'Au1 In8'
_cell_volume   231.61731506
loop_
 _symmetry_equiv_pos_site_id
 _symmetry_equiv_pos_as_xyz
  1  'x, y, z'
loop_
 _atom_type_symbol
  Au
  In
loop_
 _atom_site_type_symbol
 _atom_site_label
 _atom_site_symmetry_multiplicity
 _atom_site_fract_x
 _atom_site_fract_y
 _atom_site_fract_z
 _atom_site_occupancy
  Au  Au0  1  0.00000000  0.00000000  0.00000000  1
  In  In0  1  0.33999800  0.66000200  0.00000000  1
  In  In1  1  0.66000200  0.33999800  0.00000000  1
  In  In2  1  0.00000000  0.32673304  0.32673304  1
  In  In3  1  0.66000200  0.66000200  0.32000401  1
  In  In4  1  0.32673304  0.00000000  0.32673304  1
  In  In5  1  0.33999800  0.33999800  0.67999599  1
  In  In6  1  0.00000000  0.67326696  0.67326696  1
  In  In7  1  0.67326696  1.00000000  0.67326696  1
