# generated using pymatgen
data_113_CsV
_symmetry_space_group_name_H-M   'P-6m2'
_cell_length_a   4.32996825
_cell_length_b   4.32989925
_cell_length_c   6.91199764
_cell_angle_alpha   90.00000000
_cell_angle_beta   90.00000000
_cell_angle_gamma   120.00052708
_chemical_formula_structural   CsV
_chemical_formula_sum   'Cs1 V1'
_cell_volume   112.22623910
loop_
 _symmetry_equiv_pos_site_id
 _symmetry_equiv_pos_as_xyz
  1  'x, y, z'
loop_
 _atom_type_symbol
  Cs
  V
loop_
 _atom_site_type_symbol
 _atom_site_label
 _atom_site_symmetry_multiplicity
 _atom_site_fract_x
 _atom_site_fract_y
 _atom_site_fract_z
 _atom_site_occupancy
  Cs  Cs0  1  0.66666709  0.33333318  0.75000000  1
  V  V0  1  0.33333291  0.66666682  0.25000000  1
