# generated using pymatgen
data_1140_CrRh8
_symmetry_space_group_name_H-M   'I4/mmm'
_cell_length_a   6.18365693
_cell_length_b   6.18365693
_cell_length_c   8.36860960
_cell_angle_alpha   47.41590839
_cell_angle_beta   47.41590839
_cell_angle_gamma   85.16818321
_chemical_formula_structural   CrRh8
_chemical_formula_sum   'Cr1 Rh8'
_cell_volume   125.68645395
loop_
 _symmetry_equiv_pos_site_id
 _symmetry_equiv_pos_as_xyz
  1  'x, y, z'
loop_
 _atom_type_symbol
  Cr
  Rh
loop_
 _atom_site_type_symbol
 _atom_site_label
 _atom_site_symmetry_multiplicity
 _atom_site_fract_x
 _atom_site_fract_y
 _atom_site_fract_z
 _atom_site_occupancy
  Cr  Cr0  1  0.00000000  0.00000000  0.00000000  1
  Rh  Rh0  1  1.00000000  1.00000000  0.33188035  1
  Rh  Rh1  1  1.00000000  1.00000000  0.66811965  1
  Rh  Rh2  1  0.33188035  0.66811965  0.00000000  1
  Rh  Rh3  1  0.34106458  0.65893542  0.34106458  1
  Rh  Rh4  1  0.34106458  0.65893542  0.65893542  1
  Rh  Rh5  1  0.66811965  0.33188035  0.00000000  1
  Rh  Rh6  1  0.65893542  0.34106458  0.34106458  1
  Rh  Rh7  1  0.65893542  0.34106458  0.65893542  1
