# generated using pymatgen
data_1141_AlPd2
_symmetry_space_group_name_H-M   'I4/mmm'
_cell_length_a   5.42856992
_cell_length_b   5.42856992
_cell_length_c   5.42856992
_cell_angle_alpha   148.52742890
_cell_angle_beta   148.03305449
_cell_angle_gamma   45.47311474
_chemical_formula_structural   AlPd2
_chemical_formula_sum   'Al1 Pd2'
_cell_volume   44.07490119
loop_
 _symmetry_equiv_pos_site_id
 _symmetry_equiv_pos_as_xyz
  1  'x, y, z'
loop_
 _atom_type_symbol
  Al
  Pd
loop_
 _atom_site_type_symbol
 _atom_site_label
 _atom_site_symmetry_multiplicity
 _atom_site_fract_x
 _atom_site_fract_y
 _atom_site_fract_z
 _atom_site_occupancy
  Al  Al0  1  0.00000000  0.00000000  0.00000000  1
  Pd  Pd0  1  0.65009200  0.65009200  0.00000000  1
  Pd  Pd1  1  0.34990800  0.34990800  0.00000000  1
