# generated using pymatgen
data_1142_InTa3
_symmetry_space_group_name_H-M   'P4/mmm'
_cell_length_a   3.44059941
_cell_length_b   3.44059941
_cell_length_c   6.42843402
_cell_angle_alpha   90.00000000
_cell_angle_beta   90.00000000
_cell_angle_gamma   90.00000000
_chemical_formula_structural   InTa3
_chemical_formula_sum   'In1 Ta3'
_cell_volume   76.09802961
loop_
 _symmetry_equiv_pos_site_id
 _symmetry_equiv_pos_as_xyz
  1  'x, y, z'
loop_
 _atom_type_symbol
  In
  Ta
loop_
 _atom_site_type_symbol
 _atom_site_label
 _atom_site_symmetry_multiplicity
 _atom_site_fract_x
 _atom_site_fract_y
 _atom_site_fract_z
 _atom_site_occupancy
  In  In0  1  0.00000000  0.00000000  0.00000000  1
  Ta  Ta0  1  0.50000000  0.50000000  0.27103525  1
  Ta  Ta1  1  0.00000000  0.00000000  0.50000000  1
  Ta  Ta2  1  0.50000000  0.50000000  0.72896475  1
