# generated using pymatgen
data_1143_Au2As2
_symmetry_space_group_name_H-M   'P4/nmm'
_cell_length_a   3.05822005
_cell_length_b   3.05822005
_cell_length_c   8.12806293
_cell_angle_alpha   90.00000000
_cell_angle_beta   90.00000000
_cell_angle_gamma   90.00000000
_chemical_formula_structural   Au2As2
_chemical_formula_sum   'As2 Au2'
_cell_volume   76.01941442
loop_
 _symmetry_equiv_pos_site_id
 _symmetry_equiv_pos_as_xyz
  1  'x, y, z'
loop_
 _atom_type_symbol
  As
  Au
loop_
 _atom_site_type_symbol
 _atom_site_label
 _atom_site_symmetry_multiplicity
 _atom_site_fract_x
 _atom_site_fract_y
 _atom_site_fract_z
 _atom_site_occupancy
  As  As0  1  0.00000000  0.00000000  0.97642134  1
  As  As1  1  0.50000000  0.50000000  0.27357866  1
  Au  Au0  1  0.00000000  0.00000000  0.49755213  1
  Au  Au1  1  0.50000000  0.50000000  0.75244787  1
