# generated using pymatgen
data_1149_NbI
_symmetry_space_group_name_H-M   'F-43m'
_cell_length_a   4.46104525
_cell_length_b   4.46104525
_cell_length_c   4.46104525
_cell_angle_alpha   60.00000000
_cell_angle_beta   60.00000000
_cell_angle_gamma   60.00000000
_chemical_formula_structural   NbI
_chemical_formula_sum   'I1 Nb1'
_cell_volume   62.77618054
loop_
 _symmetry_equiv_pos_site_id
 _symmetry_equiv_pos_as_xyz
  1  'x, y, z'
loop_
 _atom_type_symbol
  I
  Nb
loop_
 _atom_site_type_symbol
 _atom_site_label
 _atom_site_symmetry_multiplicity
 _atom_site_fract_x
 _atom_site_fract_y
 _atom_site_fract_z
 _atom_site_occupancy
  I  I0  1  0.00000000  0.00000000  0.00000000  1
  Nb  Nb0  1  0.25000000  0.25000000  0.25000000  1
