# generated using pymatgen
data_114_CrNb3
_symmetry_space_group_name_H-M   'Immm'
_cell_length_a   4.57448611
_cell_length_b   5.30015954
_cell_length_c   3.19576590
_cell_angle_alpha   72.45358667
_cell_angle_beta   90.00000000
_cell_angle_gamma   115.56547851
_chemical_formula_structural   CrNb3
_chemical_formula_sum   'Cr1 Nb3'
_cell_volume   65.87793033
loop_
 _symmetry_equiv_pos_site_id
 _symmetry_equiv_pos_as_xyz
  1  'x, y, z'
loop_
 _atom_type_symbol
  Cr
  Nb
loop_
 _atom_site_type_symbol
 _atom_site_label
 _atom_site_symmetry_multiplicity
 _atom_site_fract_x
 _atom_site_fract_y
 _atom_site_fract_z
 _atom_site_occupancy
  Cr  Cr0  1  0.91662121  0.00000000  0.00000000  1
  Nb  Nb0  1  0.15425160  0.47512145  0.26243928  1
  Nb  Nb1  1  0.41666370  0.00000000  0.50000000  1
  Nb  Nb2  1  0.67913015  0.52487855  0.73756072  1
