# generated using pymatgen
data_1155_Ca3Pb
_symmetry_space_group_name_H-M   'Pmm2'
_cell_length_a   5.01307709
_cell_length_b   5.10864416
_cell_length_c   5.10815790
_cell_angle_alpha   90.00000000
_cell_angle_beta   90.00000000
_cell_angle_gamma   90.00000000
_chemical_formula_structural   Ca3Pb
_chemical_formula_sum   'Ca3 Pb1'
_cell_volume   130.82006174
loop_
 _symmetry_equiv_pos_site_id
 _symmetry_equiv_pos_as_xyz
  1  'x, y, z'
loop_
 _atom_type_symbol
  Ca
  Pb
loop_
 _atom_site_type_symbol
 _atom_site_label
 _atom_site_symmetry_multiplicity
 _atom_site_fract_x
 _atom_site_fract_y
 _atom_site_fract_z
 _atom_site_occupancy
  Ca  Ca0  1  0.00000000  0.00000000  0.92293515  1
  Ca  Ca1  1  0.50000000  0.00000000  0.41848192  1
  Ca  Ca2  1  0.50000000  0.50000000  0.91527495  1
  Pb  Pb0  1  0.00000000  0.50000000  0.40997465  1
