# generated using pymatgen
data_115_CrRh2
_symmetry_space_group_name_H-M   'I4/mmm'
_cell_length_a   5.69500806
_cell_length_b   5.69500806
_cell_length_c   5.69500806
_cell_angle_alpha   152.38895170
_cell_angle_beta   152.38895170
_cell_angle_gamma   39.44557424
_chemical_formula_structural   CrRh2
_chemical_formula_sum   'Cr1 Rh2'
_cell_volume   39.60293367
loop_
 _symmetry_equiv_pos_site_id
 _symmetry_equiv_pos_as_xyz
  1  'x, y, z'
loop_
 _atom_type_symbol
  Cr
  Rh
loop_
 _atom_site_type_symbol
 _atom_site_label
 _atom_site_symmetry_multiplicity
 _atom_site_fract_x
 _atom_site_fract_y
 _atom_site_fract_z
 _atom_site_occupancy
  Cr  Cr0  1  0.00000000  0.00000000  0.00000000  1
  Rh  Rh0  1  0.34360503  0.34360503  0.00000000  1
  Rh  Rh1  1  0.65639497  0.65639497  0.00000000  1
