# generated using pymatgen
data_1163_Mo3W
_symmetry_space_group_name_H-M   'P4/mmm'
_cell_length_a   3.16985208
_cell_length_b   3.16985208
_cell_length_c   6.33982084
_cell_angle_alpha   90.00000000
_cell_angle_beta   90.00000000
_cell_angle_gamma   90.00000000
_chemical_formula_structural   Mo3W
_chemical_formula_sum   'Mo3 W1'
_cell_volume   63.70228021
loop_
 _symmetry_equiv_pos_site_id
 _symmetry_equiv_pos_as_xyz
  1  'x, y, z'
loop_
 _atom_type_symbol
  Mo
  W
loop_
 _atom_site_type_symbol
 _atom_site_label
 _atom_site_symmetry_multiplicity
 _atom_site_fract_x
 _atom_site_fract_y
 _atom_site_fract_z
 _atom_site_occupancy
  Mo  Mo0  1  0.00000000  0.00000000  0.00007759  1
  Mo  Mo1  1  0.00000000  0.00000000  0.49992241  1
  Mo  Mo2  1  0.50000000  0.50000000  0.25000000  1
  W  W0  1  0.50000000  0.50000000  0.75000000  1
