# generated using pymatgen
data_1164_Ba4Cu2
_symmetry_space_group_name_H-M   'Cmc2_1'
_cell_length_a   7.76516927
_cell_length_b   7.76516927
_cell_length_c   7.95414625
_cell_angle_alpha   89.68381153
_cell_angle_beta   89.68381153
_cell_angle_gamma   32.03658455
_chemical_formula_structural   Ba4Cu2
_chemical_formula_sum   'Ba4 Cu2'
_cell_volume   254.41425608
loop_
 _symmetry_equiv_pos_site_id
 _symmetry_equiv_pos_as_xyz
  1  'x, y, z'
loop_
 _atom_type_symbol
  Ba
  Cu
loop_
 _atom_site_type_symbol
 _atom_site_label
 _atom_site_symmetry_multiplicity
 _atom_site_fract_x
 _atom_site_fract_y
 _atom_site_fract_z
 _atom_site_occupancy
  Ba  Ba0  1  0.91210832  0.91210832  0.91123540  1
  Ba  Ba1  1  0.36556846  0.36556846  0.41173723  1
  Ba  Ba2  1  0.65236650  0.65236650  0.73812582  1
  Ba  Ba3  1  0.62558118  0.62558118  0.23831006  1
  Cu  Cu0  1  0.02641063  0.02641063  0.51671315  1
  Cu  Cu1  1  0.25129825  0.25129825  0.01721167  1
