# generated using pymatgen
data_1177_PAs5
_symmetry_space_group_name_H-M   'F-43m'
_cell_length_a   5.50713999
_cell_length_b   5.50713999
_cell_length_c   5.50713999
_cell_angle_alpha   60.00000000
_cell_angle_beta   60.00000000
_cell_angle_gamma   60.00000000
_chemical_formula_structural   PAs5
_chemical_formula_sum   'As5 P1'
_cell_volume   118.10365833
loop_
 _symmetry_equiv_pos_site_id
 _symmetry_equiv_pos_as_xyz
  1  'x, y, z'
loop_
 _atom_type_symbol
  As
  P
loop_
 _atom_site_type_symbol
 _atom_site_label
 _atom_site_symmetry_multiplicity
 _atom_site_fract_x
 _atom_site_fract_y
 _atom_site_fract_z
 _atom_site_occupancy
  As  As0  1  0.75000000  0.75000000  0.75000000  1
  As  As1  1  0.37418630  0.37418630  0.87744111  1
  As  As2  1  0.37418630  0.37418630  0.37418630  1
  As  As3  1  0.87744111  0.37418630  0.37418630  1
  As  As4  1  0.37418630  0.87744111  0.37418630  1
  P  P0  1  0.00000000  0.00000000  0.00000000  1
