# generated using pymatgen
data_117_Mn2Sn
_symmetry_space_group_name_H-M   'I4/mmm'
_cell_length_a   4.92727776
_cell_length_b   4.92727776
_cell_length_c   4.92727776
_cell_angle_alpha   140.09345181
_cell_angle_beta   140.09345181
_cell_angle_gamma   57.71143286
_chemical_formula_structural   Mn2Sn
_chemical_formula_sum   'Mn2 Sn1'
_cell_volume   48.80446096
loop_
 _symmetry_equiv_pos_site_id
 _symmetry_equiv_pos_as_xyz
  1  'x, y, z'
loop_
 _atom_type_symbol
  Mn
  Sn
loop_
 _atom_site_type_symbol
 _atom_site_label
 _atom_site_symmetry_multiplicity
 _atom_site_fract_x
 _atom_site_fract_y
 _atom_site_fract_z
 _atom_site_occupancy
  Mn  Mn0  1  0.67170055  0.67170055  0.00000000  1
  Mn  Mn1  1  0.32829945  0.32829945  0.00000000  1
  Sn  Sn0  1  0.00000000  0.00000000  0.00000000  1
