# generated using pymatgen
data_1180_Mo3W
_symmetry_space_group_name_H-M   'P2/m'
_cell_length_a   2.74346034
_cell_length_b   4.48085182
_cell_length_c   5.25689377
_cell_angle_alpha   90.00000000
_cell_angle_beta   80.02895677
_cell_angle_gamma   90.00000000
_chemical_formula_structural   Mo3W
_chemical_formula_sum   'Mo3 W1'
_cell_volume   63.64709312
loop_
 _symmetry_equiv_pos_site_id
 _symmetry_equiv_pos_as_xyz
  1  'x, y, z'
loop_
 _atom_type_symbol
  Mo
  W
loop_
 _atom_site_type_symbol
 _atom_site_label
 _atom_site_symmetry_multiplicity
 _atom_site_fract_x
 _atom_site_fract_y
 _atom_site_fract_z
 _atom_site_occupancy
  Mo  Mo0  1  0.00061855  0.00000000  0.99991196  1
  Mo  Mo1  1  0.49938145  0.00000000  0.50008804  1
  Mo  Mo2  1  0.25000000  0.50000000  0.25000000  1
  W  W0  1  0.75000000  0.50000000  0.75000000  1
