# generated using pymatgen
data_1181_MoPb5
_symmetry_space_group_name_H-M   'Amm2'
_cell_length_a   9.28010909
_cell_length_b   9.28010909
_cell_length_c   5.48058323
_cell_angle_alpha   90.00000000
_cell_angle_beta   90.00000000
_cell_angle_gamma   159.47604569
_chemical_formula_structural   MoPb5
_chemical_formula_sum   'Mo1 Pb5'
_cell_volume   165.47925589
loop_
 _symmetry_equiv_pos_site_id
 _symmetry_equiv_pos_as_xyz
  1  'x, y, z'
loop_
 _atom_type_symbol
  Mo
  Pb
loop_
 _atom_site_type_symbol
 _atom_site_label
 _atom_site_symmetry_multiplicity
 _atom_site_fract_x
 _atom_site_fract_y
 _atom_site_fract_z
 _atom_site_occupancy
  Mo  Mo0  1  0.00518371  0.99481629  0.00000000  1
  Pb  Pb0  1  0.35589519  0.64410481  0.00000000  1
  Pb  Pb1  1  0.64442021  0.35557979  0.00000000  1
  Pb  Pb2  1  0.45123887  0.54876113  0.50000000  1
  Pb  Pb3  1  0.77321293  0.22678707  0.50000000  1
  Pb  Pb4  1  0.10338242  0.89661758  0.50000000  1
