# generated using pymatgen
data_1182_Nb2Pb4
_symmetry_space_group_name_H-M   'Cmcm'
_cell_length_a   8.79102883
_cell_length_b   8.79102883
_cell_length_c   5.29263269
_cell_angle_alpha   90.00000000
_cell_angle_beta   90.00000000
_cell_angle_gamma   159.11960901
_chemical_formula_structural   Nb2Pb4
_chemical_formula_sum   'Nb2 Pb4'
_cell_volume   145.78441625
loop_
 _symmetry_equiv_pos_site_id
 _symmetry_equiv_pos_as_xyz
  1  'x, y, z'
loop_
 _atom_type_symbol
  Nb
  Pb
loop_
 _atom_site_type_symbol
 _atom_site_label
 _atom_site_symmetry_multiplicity
 _atom_site_fract_x
 _atom_site_fract_y
 _atom_site_fract_z
 _atom_site_occupancy
  Nb  Nb0  1  0.32986705  0.67013295  0.00000000  1
  Nb  Nb1  1  0.55902184  0.44097816  0.50000000  1
  Pb  Pb0  1  0.99891921  0.00108079  0.00000000  1
  Pb  Pb1  1  0.67253459  0.32746541  0.00000000  1
  Pb  Pb2  1  0.21635430  0.78364570  0.50000000  1
  Pb  Pb3  1  0.88996968  0.11003032  0.50000000  1
