# generated using pymatgen
data_1183_K3Sn
_symmetry_space_group_name_H-M   'Immm'
_cell_length_a   6.86184399
_cell_length_b   6.86184399
_cell_length_c   6.04650224
_cell_angle_alpha   64.32052719
_cell_angle_beta   64.32052719
_cell_angle_gamma   44.42303398
_chemical_formula_structural   K3Sn
_chemical_formula_sum   'K3 Sn1'
_cell_volume   176.09782352
loop_
 _symmetry_equiv_pos_site_id
 _symmetry_equiv_pos_as_xyz
  1  'x, y, z'
loop_
 _atom_type_symbol
  K
  Sn
loop_
 _atom_site_type_symbol
 _atom_site_label
 _atom_site_symmetry_multiplicity
 _atom_site_fract_x
 _atom_site_fract_y
 _atom_site_fract_z
 _atom_site_occupancy
  K  K0  1  0.50000000  0.50000000  0.50000000  1
  K  K1  1  0.73539477  0.73539477  0.76662038  1
  K  K2  1  0.26460523  0.26460523  0.23337962  1
  Sn  Sn0  1  0.00000000  0.00000000  0.00000000  1
