# generated using pymatgen
data_1184_Ca3Pb
_symmetry_space_group_name_H-M   'Pmm2'
_cell_length_a   3.84162449
_cell_length_b   6.05941682
_cell_length_c   6.50217145
_cell_angle_alpha   90.00000000
_cell_angle_beta   90.00000000
_cell_angle_gamma   90.00000000
_chemical_formula_structural   Ca3Pb
_chemical_formula_sum   'Ca3 Pb1'
_cell_volume   151.35757335
loop_
 _symmetry_equiv_pos_site_id
 _symmetry_equiv_pos_as_xyz
  1  'x, y, z'
loop_
 _atom_type_symbol
  Ca
  Pb
loop_
 _atom_site_type_symbol
 _atom_site_label
 _atom_site_symmetry_multiplicity
 _atom_site_fract_x
 _atom_site_fract_y
 _atom_site_fract_z
 _atom_site_occupancy
  Ca  Ca0  1  0.00000000  0.00000000  0.00185519  1
  Ca  Ca1  1  0.50000000  0.00000000  0.49866531  1
  Ca  Ca2  1  0.50000000  0.50000000  0.83339787  1
  Pb  Pb0  1  0.00000000  0.50000000  0.33274830  1
