# generated using pymatgen
data_1190_Pd2Sb4
_symmetry_space_group_name_H-M   'Cmcm'
_cell_length_a   8.21274813
_cell_length_b   8.21274813
_cell_length_c   5.54073826
_cell_angle_alpha   90.00000000
_cell_angle_beta   90.00000000
_cell_angle_gamma   157.05302214
_chemical_formula_structural   Pd2Sb4
_chemical_formula_sum   'Pd2 Sb4'
_cell_volume   145.70505388
loop_
 _symmetry_equiv_pos_site_id
 _symmetry_equiv_pos_as_xyz
  1  'x, y, z'
loop_
 _atom_type_symbol
  Pd
  Sb
loop_
 _atom_site_type_symbol
 _atom_site_label
 _atom_site_symmetry_multiplicity
 _atom_site_fract_x
 _atom_site_fract_y
 _atom_site_fract_z
 _atom_site_occupancy
  Pd  Pd0  1  0.72402562  0.27597438  0.00000000  1
  Pd  Pd1  1  0.38708549  0.61291451  0.50000000  1
  Sb  Sb0  1  0.09076082  0.90923918  0.00000000  1
  Sb  Sb1  1  0.36305896  0.63694104  0.00000000  1
  Sb  Sb2  1  0.74805215  0.25194785  0.50000000  1
  Sb  Sb3  1  0.02035029  0.97964971  0.50000000  1
