# generated using pymatgen
data_1192_Ge8I32
_symmetry_space_group_name_H-M   'Pa -3'
_cell_length_a   12.61976000
_cell_length_b   12.61976000
_cell_length_c   12.61976000
_cell_angle_alpha   90.00000000
_cell_angle_beta   90.00000000
_cell_angle_gamma   90.00000000
_chemical_formula_structural   Ge8I32
_chemical_formula_sum   'Ge8 I32'
_cell_volume   2009.80205981
loop_
 _symmetry_equiv_pos_site_id
 _symmetry_equiv_pos_as_xyz
  1  'x, y, z'
loop_
 _atom_type_symbol
  Ge
  I
loop_
 _atom_site_type_symbol
 _atom_site_label
 _atom_site_symmetry_multiplicity
 _atom_site_fract_x
 _atom_site_fract_y
 _atom_site_fract_z
 _atom_site_occupancy
  Ge  Ge0  1  0.13212137  0.13212137  0.13212137  1
  Ge  Ge1  1  0.36787862  0.63212136  0.13212137  1
  Ge  Ge2  1  0.63212136  0.13212137  0.36787862  1
  Ge  Ge3  1  0.86787782  0.63212136  0.36787862  1
  Ge  Ge4  1  0.13212137  0.36787862  0.63212136  1
  Ge  Ge5  1  0.36787862  0.86787782  0.63212136  1
  Ge  Ge6  1  0.63212136  0.36787862  0.86787782  1
  Ge  Ge7  1  0.86787782  0.86787782  0.86787782  1
  I  I0  1  0.24934071  0.02785394  0.00498108  1
  I  I1  1  0.25065928  0.52785472  0.00498108  1
  I  I2  1  0.00498108  0.24934071  0.02785394  1
  I  I3  1  0.49501971  0.74933991  0.02785394  1
  I  I4  1  0.24820519  0.24820519  0.24820519  1
  I  I5  1  0.25179480  0.74820518  0.24820519  1
  I  I6  1  0.02785394  0.00498108  0.24934071  1
  I  I7  1  0.47214526  0.50498107  0.24934071  1
  I  I8  1  0.52785472  0.00498108  0.25065928  1
  I  I9  1  0.97214526  0.50498107  0.25065928  1
  I  I10  1  0.74820518  0.24820519  0.25179480  1
  I  I11  1  0.75179479  0.74820518  0.25179480  1
  I  I12  1  0.50498107  0.24934071  0.47214526  1
  I  I13  1  0.99501970  0.74933991  0.47214526  1
  I  I14  1  0.74933991  0.02785394  0.49501971  1
  I  I15  1  0.75066006  0.52785472  0.49501971  1
  I  I16  1  0.24934071  0.47214526  0.50498107  1
  I  I17  1  0.25065928  0.97214526  0.50498107  1
  I  I18  1  0.00498108  0.25065928  0.52785472  1
  I  I19  1  0.49501971  0.75066006  0.52785472  1
  I  I20  1  0.24820519  0.25179480  0.74820518  1
  I  I21  1  0.25179480  0.75179479  0.74820518  1
  I  I22  1  0.02785394  0.49501971  0.74933991  1
  I  I23  1  0.47214526  0.99501970  0.74933991  1
  I  I24  1  0.52785472  0.49501971  0.75066006  1
  I  I25  1  0.97214526  0.99501970  0.75066006  1
  I  I26  1  0.74820518  0.25179480  0.75179479  1
  I  I27  1  0.75179479  0.75179479  0.75179479  1
  I  I28  1  0.50498107  0.25065928  0.97214526  1
  I  I29  1  0.99501970  0.75066006  0.97214526  1
  I  I30  1  0.74933991  0.47214526  0.99501970  1
  I  I31  1  0.75066006  0.97214526  0.99501970  1
