# generated using pymatgen
data_1193_Ag7Al3
_symmetry_space_group_name_H-M   'Amm2'
_cell_length_a   4.07421880
_cell_length_b   10.52068858
_cell_length_c   4.07851309
_cell_angle_alpha   101.17568117
_cell_angle_beta   90.00000000
_cell_angle_gamma   90.00000000
_chemical_formula_structural   Ag7Al3
_chemical_formula_sum   'Ag7 Al3'
_cell_volume   171.50468438
loop_
 _symmetry_equiv_pos_site_id
 _symmetry_equiv_pos_as_xyz
  1  'x, y, z'
loop_
 _atom_type_symbol
  Ag
  Al
loop_
 _atom_site_type_symbol
 _atom_site_label
 _atom_site_symmetry_multiplicity
 _atom_site_fract_x
 _atom_site_fract_y
 _atom_site_fract_z
 _atom_site_occupancy
  Ag  Ag0  1  0.00000000  0.99028179  0.99516123  1
  Ag  Ag1  1  0.50000000  0.19668319  0.09835951  1
  Ag  Ag2  1  0.00000000  0.40434727  0.20216385  1
  Ag  Ag3  1  0.50000000  0.60925673  0.30457465  1
  Ag  Ag4  1  0.00000000  0.80059258  0.40031246  1
  Ag  Ag5  1  0.00000000  0.19285014  0.59646061  1
  Ag  Ag6  1  0.50000000  0.40599024  0.70297887  1
  Al  Al0  1  0.50000000  0.00523397  0.50261899  1
  Al  Al1  1  0.00000000  0.59536306  0.79767271  1
  Al  Al2  1  0.50000000  0.79940103  0.89969712  1
