# generated using pymatgen
data_1195_Ag5Al3
_symmetry_space_group_name_H-M   'Amm2'
_cell_length_a   2.99671692
_cell_length_b   5.75345259
_cell_length_c   8.39724087
_cell_angle_alpha   69.96588253
_cell_angle_beta   90.00000000
_cell_angle_gamma   90.00000000
_chemical_formula_structural   Ag5Al3
_chemical_formula_sum   'Ag5 Al3'
_cell_volume   136.01990713
loop_
 _symmetry_equiv_pos_site_id
 _symmetry_equiv_pos_as_xyz
  1  'x, y, z'
loop_
 _atom_type_symbol
  Ag
  Al
loop_
 _atom_site_type_symbol
 _atom_site_label
 _atom_site_symmetry_multiplicity
 _atom_site_fract_x
 _atom_site_fract_y
 _atom_site_fract_z
 _atom_site_occupancy
  Ag  Ag0  1  0.00000000  0.99495330  0.98391374  1
  Ag  Ag1  1  0.50000000  0.12278564  0.24539954  1
  Ag  Ag2  1  0.00000000  0.22886704  0.51608626  1
  Ag  Ag3  1  0.50000000  0.41153154  0.75000000  1
  Ag  Ag4  1  0.50000000  0.61818518  0.25460046  1
  Al  Al0  1  0.00000000  0.49228597  0.00733151  1
  Al  Al1  1  0.00000000  0.74961748  0.49266849  1
  Al  Al2  1  0.50000000  0.88177384  0.75000000  1
