# generated using pymatgen
data_1197_KGe3
_symmetry_space_group_name_H-M   'Imm2'
_cell_length_a   6.29377329
_cell_length_b   6.29377329
_cell_length_c   6.29377329
_cell_angle_alpha   152.86527539
_cell_angle_beta   119.88256452
_cell_angle_gamma   67.15991329
_chemical_formula_structural   KGe3
_chemical_formula_sum   'Ge3 K1'
_cell_volume   97.62131452
loop_
 _symmetry_equiv_pos_site_id
 _symmetry_equiv_pos_as_xyz
  1  'x, y, z'
loop_
 _atom_type_symbol
  Ge
  K
loop_
 _atom_site_type_symbol
 _atom_site_label
 _atom_site_symmetry_multiplicity
 _atom_site_fract_x
 _atom_site_fract_y
 _atom_site_fract_z
 _atom_site_occupancy
  Ge  Ge0  1  0.98007598  0.95845653  0.02161946  1
  Ge  Ge1  1  0.56316293  0.54154347  0.02161946  1
  Ge  Ge2  1  0.90597382  0.25000000  0.65597382  1
  K  K0  1  0.38412060  0.75000000  0.63412060  1
