# generated using pymatgen
data_1199_Pt10Sn6
_symmetry_space_group_name_H-M   'I4/mcm'
_cell_length_a   7.68426647
_cell_length_b   7.68396578
_cell_length_c   7.68420638
_cell_angle_alpha   98.52360353
_cell_angle_beta   98.52553455
_cell_angle_gamma   134.71086844
_chemical_formula_structural   Pt10Sn6
_chemical_formula_sum   'Pt10 Sn6'
_cell_volume   297.58644186
loop_
 _symmetry_equiv_pos_site_id
 _symmetry_equiv_pos_as_xyz
  1  'x, y, z'
loop_
 _atom_type_symbol
  Pt
  Sn
loop_
 _atom_site_type_symbol
 _atom_site_label
 _atom_site_symmetry_multiplicity
 _atom_site_fract_x
 _atom_site_fract_y
 _atom_site_fract_z
 _atom_site_occupancy
  Pt  Pt0  1  0.24820943  0.74918090  0.50000000  1
  Pt  Pt1  1  0.74820861  0.24918387  0.50000000  1
  Pt  Pt2  1  0.78055442  0.07450805  0.85389681  1
  Pt  Pt3  1  0.22141331  0.92683182  0.14707905  1
  Pt  Pt4  1  0.72107645  0.57523873  0.29448140  1
  Pt  Pt5  1  0.28022062  0.42758237  0.70595458  1
  Pt  Pt6  1  0.57433427  0.27975277  0.85292095  1
  Pt  Pt7  1  0.42665761  0.72061124  0.14610319  1
  Pt  Pt8  1  0.07426604  0.22162779  0.29404542  1
  Pt  Pt9  1  0.92659505  0.78075733  0.70551860  1
  Sn  Sn0  1  0.75058853  0.75019124  0.99999878  1
  Sn  Sn1  1  0.25058975  0.25019245  0.00000122  1
  Sn  Sn2  1  0.33475842  0.16237287  0.50000000  1
  Sn  Sn3  1  0.66120593  0.83591854  0.50000000  1
  Sn  Sn4  1  0.16055843  0.66125601  0.82646197  1
  Sn  Sn5  1  0.83409646  0.33479403  0.17353803  1
