# generated using pymatgen
data_119_IrP
_symmetry_space_group_name_H-M   'R -3 m'
_cell_length_a   4.07056195
_cell_length_b   4.07056195
_cell_length_c   4.07056159
_cell_angle_alpha   42.31727639
_cell_angle_beta   42.31727639
_cell_angle_gamma   42.31728444
_chemical_formula_structural   IrP
_chemical_formula_sum   'Ir1 P1'
_cell_volume   27.67045621
loop_
 _symmetry_equiv_pos_site_id
 _symmetry_equiv_pos_as_xyz
  1  'x, y, z'
loop_
 _atom_type_symbol
  Ir
  P
loop_
 _atom_site_type_symbol
 _atom_site_label
 _atom_site_symmetry_multiplicity
 _atom_site_fract_x
 _atom_site_fract_y
 _atom_site_fract_z
 _atom_site_occupancy
  Ir  Ir0  1  0.00000000  0.00000000  0.00000000  1
  P  P0  1  0.50000000  0.50000000  0.50000000  1
