# generated using pymatgen
data_1202_PdTa4
_symmetry_space_group_name_H-M   'I4/mmm'
_cell_length_a   3.80321677
_cell_length_b   7.31551981
_cell_length_c   3.80321677
_cell_angle_alpha   74.93339931
_cell_angle_beta   90.00000000
_cell_angle_gamma   105.06660069
_chemical_formula_structural   PdTa4
_chemical_formula_sum   'Pd1 Ta4'
_cell_volume   98.40573780
loop_
 _symmetry_equiv_pos_site_id
 _symmetry_equiv_pos_as_xyz
  1  'x, y, z'
loop_
 _atom_type_symbol
  Pd
  Ta
loop_
 _atom_site_type_symbol
 _atom_site_label
 _atom_site_symmetry_multiplicity
 _atom_site_fract_x
 _atom_site_fract_y
 _atom_site_fract_z
 _atom_site_occupancy
  Pd  Pd0  1  0.00000000  0.00000000  0.00000000  1
  Ta  Ta0  1  0.25000000  0.50000000  0.25000000  1
  Ta  Ta1  1  0.40651353  0.81302705  0.59348647  1
  Ta  Ta2  1  0.59348647  0.18697295  0.40651353  1
  Ta  Ta3  1  0.75000000  0.50000000  0.75000000  1
