# generated using pymatgen
data_1204_PdW2
_symmetry_space_group_name_H-M   'Fmmm'
_cell_length_a   6.93839659
_cell_length_b   6.79453263
_cell_length_c   2.72993545
_cell_angle_alpha   81.49550825
_cell_angle_beta   75.59489313
_cell_angle_gamma   22.90210155
_chemical_formula_structural   PdW2
_chemical_formula_sum   'Pd1 W2'
_cell_volume   47.36791204
loop_
 _symmetry_equiv_pos_site_id
 _symmetry_equiv_pos_as_xyz
  1  'x, y, z'
loop_
 _atom_type_symbol
  Pd
  W
loop_
 _atom_site_type_symbol
 _atom_site_label
 _atom_site_symmetry_multiplicity
 _atom_site_fract_x
 _atom_site_fract_y
 _atom_site_fract_z
 _atom_site_occupancy
  Pd  Pd0  1  0.00000000  0.00000000  0.00000000  1
  W  W0  1  0.33361884  0.33362447  0.66622574  1
  W  W1  1  0.66638116  0.66637553  0.33377426  1
