# generated using pymatgen
data_1206_K2Ge6
_symmetry_space_group_name_H-M   'Cmcm'
_cell_length_a   6.66983692
_cell_length_b   6.66983692
_cell_length_c   5.04474136
_cell_angle_alpha   90.00000000
_cell_angle_beta   90.00000000
_cell_angle_gamma   96.89905316
_chemical_formula_structural   K2Ge6
_chemical_formula_sum   'Ge6 K2'
_cell_volume   222.79903817
loop_
 _symmetry_equiv_pos_site_id
 _symmetry_equiv_pos_as_xyz
  1  'x, y, z'
loop_
 _atom_type_symbol
  Ge
  K
loop_
 _atom_site_type_symbol
 _atom_site_label
 _atom_site_symmetry_multiplicity
 _atom_site_fract_x
 _atom_site_fract_y
 _atom_site_fract_z
 _atom_site_occupancy
  Ge  Ge0  1  0.92494811  0.07505189  0.75000000  1
  Ge  Ge1  1  0.07505189  0.92494811  0.25000000  1
  Ge  Ge2  1  0.02416029  0.69082071  0.75000000  1
  Ge  Ge3  1  0.97583971  0.30917929  0.25000000  1
  Ge  Ge4  1  0.30917929  0.97583971  0.75000000  1
  Ge  Ge5  1  0.69082071  0.02416029  0.25000000  1
  K  K0  1  0.39100459  0.60899541  0.25000000  1
  K  K1  1  0.60899541  0.39100459  0.75000000  1
