# generated using pymatgen
data_1207_Ce4Ge4
_symmetry_space_group_name_H-M   'Pnma'
_cell_length_a   8.48911400
_cell_length_b   4.12242200
_cell_length_c   6.10205600
_cell_angle_alpha   90.00000000
_cell_angle_beta   90.00000000
_cell_angle_gamma   90.00000000
_chemical_formula_structural   Ce4Ge4
_chemical_formula_sum   'Ce4 Ge4'
_cell_volume   213.54578410
loop_
 _symmetry_equiv_pos_site_id
 _symmetry_equiv_pos_as_xyz
  1  'x, y, z'
loop_
 _atom_type_symbol
  Ce
  Ge
loop_
 _atom_site_type_symbol
 _atom_site_label
 _atom_site_symmetry_multiplicity
 _atom_site_fract_x
 _atom_site_fract_y
 _atom_site_fract_z
 _atom_site_occupancy
  Ce  Ce0  1  0.18102124  0.25000110  0.11594945  1
  Ce  Ce1  1  0.68102156  0.25000110  0.38405091  1
  Ce  Ce2  1  0.31897791  0.75000087  0.61594981  1
  Ce  Ce3  1  0.81897824  0.75000087  0.88405126  1
  Ge  Ge0  1  0.46289398  0.75000087  0.13411710  1
  Ge  Ge1  1  0.96289313  0.75000087  0.36588326  1
  Ge  Ge2  1  0.03710634  0.25000110  0.63411746  1
  Ge  Ge3  1  0.53710667  0.25000110  0.86588362  1
