# generated using pymatgen
data_1211_PbSb
_symmetry_space_group_name_H-M   'P4/mmm'
_cell_length_a   3.48568853
_cell_length_b   4.92950900
_cell_length_c   4.92098200
_cell_angle_alpha   90.00000000
_cell_angle_beta   90.00000000
_cell_angle_gamma   45.00000000
_chemical_formula_structural   PbSb
_chemical_formula_sum   'Pb1 Sb1'
_cell_volume   59.79006429
loop_
 _symmetry_equiv_pos_site_id
 _symmetry_equiv_pos_as_xyz
  1  'x, y, z'
loop_
 _atom_type_symbol
  Pb
  Sb
loop_
 _atom_site_type_symbol
 _atom_site_label
 _atom_site_symmetry_multiplicity
 _atom_site_fract_x
 _atom_site_fract_y
 _atom_site_fract_z
 _atom_site_occupancy
  Pb  Pb0  1  0.00000000  0.00000000  0.00000000  1
  Sb  Sb0  1  0.00000000  0.49999905  0.49999977  1
