# generated using pymatgen
data_1212_Ir4Ta2
_symmetry_space_group_name_H-M   'Imma'
_cell_length_a   2.81302103
_cell_length_b   4.08020099
_cell_length_c   17.51505304
_cell_angle_alpha   90.00000000
_cell_angle_beta   90.00000000
_cell_angle_gamma   90.00000000
_chemical_formula_structural   Ir4Ta2
_chemical_formula_sum   'Ir8 Ta4'
_cell_volume   201.03237000
loop_
 _symmetry_equiv_pos_site_id
 _symmetry_equiv_pos_as_xyz
  1  'x, y, z'
loop_
 _atom_type_symbol
  Ir
  Ta
loop_
 _atom_site_type_symbol
 _atom_site_label
 _atom_site_symmetry_multiplicity
 _atom_site_fract_x
 _atom_site_fract_y
 _atom_site_fract_z
 _atom_site_occupancy
  Ir  Ir0  1  0.00000000  0.25000000  0.04268672  1
  Ir  Ir1  1  0.00000000  0.75000000  0.95731328  1
  Ir  Ir2  1  0.50000000  0.75000000  0.54268672  1
  Ir  Ir3  1  0.50000000  0.25000000  0.45731328  1
  Ir  Ir4  1  0.00000000  0.25000000  0.19003682  1
  Ir  Ir5  1  0.00000000  0.75000000  0.80996318  1
  Ir  Ir6  1  0.50000000  0.75000000  0.69003682  1
  Ir  Ir7  1  0.50000000  0.25000000  0.30996318  1
  Ta  Ta0  1  0.00000000  0.25000000  0.61408779  1
  Ta  Ta1  1  0.00000000  0.75000000  0.38591221  1
  Ta  Ta2  1  0.50000000  0.75000000  0.11408779  1
  Ta  Ta3  1  0.50000000  0.25000000  0.88591221  1
