# generated using pymatgen
data_1214_GaW3
_symmetry_space_group_name_H-M   'P4/mmm'
_cell_length_a   3.31836290
_cell_length_b   3.31836290
_cell_length_c   5.76160073
_cell_angle_alpha   90.00000000
_cell_angle_beta   90.00000000
_cell_angle_gamma   90.00000000
_chemical_formula_structural   GaW3
_chemical_formula_sum   'Ga1 W3'
_cell_volume   63.44405275
loop_
 _symmetry_equiv_pos_site_id
 _symmetry_equiv_pos_as_xyz
  1  'x, y, z'
loop_
 _atom_type_symbol
  Ga
  W
loop_
 _atom_site_type_symbol
 _atom_site_label
 _atom_site_symmetry_multiplicity
 _atom_site_fract_x
 _atom_site_fract_y
 _atom_site_fract_z
 _atom_site_occupancy
  Ga  Ga0  1  0.00000000  0.00000000  0.00000000  1
  W  W0  1  0.50000000  0.50000000  0.24299951  1
  W  W1  1  0.00000000  0.00000000  0.50000000  1
  W  W2  1  0.50000000  0.50000000  0.75700049  1
