# generated using pymatgen
data_1217_Pt4Sr2
_symmetry_space_group_name_H-M   'Cmcm'
_cell_length_a   5.11985783
_cell_length_b   5.78816127
_cell_length_c   5.15578852
_cell_angle_alpha   90.00000000
_cell_angle_beta   90.00000000
_cell_angle_gamma   63.75120686
_chemical_formula_structural   Pt4Sr2
_chemical_formula_sum   'Pt4 Sr2'
_cell_volume   137.03419584
loop_
 _symmetry_equiv_pos_site_id
 _symmetry_equiv_pos_as_xyz
  1  'x, y, z'
loop_
 _atom_type_symbol
  Pt
  Sr
loop_
 _atom_site_type_symbol
 _atom_site_label
 _atom_site_symmetry_multiplicity
 _atom_site_fract_x
 _atom_site_fract_y
 _atom_site_fract_z
 _atom_site_occupancy
  Pt  Pt0  1  0.74152587  0.51694827  0.00000000  1
  Pt  Pt1  1  0.30921237  0.38157526  0.00000000  1
  Pt  Pt2  1  0.24634319  0.50731363  0.50000000  1
  Pt  Pt3  1  0.81402969  0.37194062  0.50000000  1
  Sr  Sr0  1  0.02535634  0.94928733  0.00000000  1
  Sr  Sr1  1  0.53019922  0.93960156  0.50000000  1
