# generated using pymatgen
data_1221_Mo3Pb
_symmetry_space_group_name_H-M   'Immm'
_cell_length_a   5.41272892
_cell_length_b   5.41272892
_cell_length_c   4.53583099
_cell_angle_alpha   65.28350243
_cell_angle_beta   65.28350243
_cell_angle_gamma   36.03229327
_chemical_formula_structural   Mo3Pb
_chemical_formula_sum   'Mo3 Pb1'
_cell_volume   70.20923824
loop_
 _symmetry_equiv_pos_site_id
 _symmetry_equiv_pos_as_xyz
  1  'x, y, z'
loop_
 _atom_type_symbol
  Mo
  Pb
loop_
 _atom_site_type_symbol
 _atom_site_label
 _atom_site_symmetry_multiplicity
 _atom_site_fract_x
 _atom_site_fract_y
 _atom_site_fract_z
 _atom_site_occupancy
  Mo  Mo0  1  0.50000000  0.50000000  0.50000000  1
  Mo  Mo1  1  0.23804518  0.23804518  0.25951219  1
  Mo  Mo2  1  0.76195482  0.76195482  0.74048781  1
  Pb  Pb0  1  0.00000000  0.00000000  0.00000000  1
