# generated using pymatgen
data_1222_K5Ge
_symmetry_space_group_name_H-M   'Amm2'
_cell_length_a   11.15629117
_cell_length_b   11.15629117
_cell_length_c   6.45632492
_cell_angle_alpha   90.00000000
_cell_angle_beta   90.00000000
_cell_angle_gamma   155.42965614
_chemical_formula_structural   K5Ge
_chemical_formula_sum   'Ge1 K5'
_cell_volume   334.13357156
loop_
 _symmetry_equiv_pos_site_id
 _symmetry_equiv_pos_as_xyz
  1  'x, y, z'
loop_
 _atom_type_symbol
  Ge
  K
loop_
 _atom_site_type_symbol
 _atom_site_label
 _atom_site_symmetry_multiplicity
 _atom_site_fract_x
 _atom_site_fract_y
 _atom_site_fract_z
 _atom_site_occupancy
  Ge  Ge0  1  0.99755826  0.00244174  0.00000000  1
  K  K0  1  0.37865111  0.62134889  0.00000000  1
  K  K1  1  0.61384098  0.38615902  0.00000000  1
  K  K2  1  0.46361744  0.53638256  0.50000000  1
  K  K3  1  0.78381719  0.21618281  0.50000000  1
  K  K4  1  0.09584835  0.90415165  0.50000000  1
