# generated using pymatgen
data_1223_Al2Cu
_symmetry_space_group_name_H-M   'Fm -3 m'
_cell_length_a   4.08920405
_cell_length_b   5.77170931
_cell_length_c   4.08317258
_cell_angle_alpha   90.00000000
_cell_angle_beta   90.00000000
_cell_angle_gamma   90.00000000
_chemical_formula_structural   Al2Cu
_chemical_formula_sum   'Al4 Cu2'
_cell_volume   96.36980238
loop_
 _symmetry_equiv_pos_site_id
 _symmetry_equiv_pos_as_xyz
  1  'x, y, z'
loop_
 _atom_type_symbol
  Al
  Cu
loop_
 _atom_site_type_symbol
 _atom_site_label
 _atom_site_symmetry_multiplicity
 _atom_site_fract_x
 _atom_site_fract_y
 _atom_site_fract_z
 _atom_site_occupancy
  Al  Al0  1  0.00000000  0.25016773  0.49974801  1
  Al  Al1  1  0.00000000  0.74983227  0.50025199  1
  Al  Al2  1  0.50000000  0.75016773  0.00025199  1
  Al  Al3  1  0.50000000  0.24983227  0.99974801  1
  Cu  Cu0  1  0.00000000  0.00000000  0.00000000  1
  Cu  Cu1  1  0.50000000  0.50000000  0.50000000  1
