# generated using pymatgen
data_1226_Ag4Al
_symmetry_space_group_name_H-M   'I4/m'
_cell_length_a   4.12312471
_cell_length_b   5.02832409
_cell_length_c   5.03103290
_cell_angle_alpha   80.45054797
_cell_angle_beta   114.18489395
_cell_angle_gamma   114.13327570
_chemical_formula_structural   Ag4Al
_chemical_formula_sum   'Ag4 Al1'
_cell_volume   86.83374590
loop_
 _symmetry_equiv_pos_site_id
 _symmetry_equiv_pos_as_xyz
  1  'x, y, z'
loop_
 _atom_type_symbol
  Ag
  Al
loop_
 _atom_site_type_symbol
 _atom_site_label
 _atom_site_symmetry_multiplicity
 _atom_site_fract_x
 _atom_site_fract_y
 _atom_site_fract_z
 _atom_site_occupancy
  Ag  Ag0  1  0.99729998  0.99382269  0.00067668  1
  Ag  Ag1  1  0.80338451  0.20068950  0.40609042  1
  Ag  Ag2  1  0.59661549  0.39931050  0.79390958  1
  Ag  Ag3  1  0.40270002  0.60617731  0.19932332  1
  Al  Al0  1  0.20000000  0.80000000  0.60000000  1
