# generated using pymatgen
data_1230_Mo5W
_symmetry_space_group_name_H-M   'P4/mmm'
_cell_length_a   12.04566486
_cell_length_b   2.83625320
_cell_length_c   2.83625320
_cell_angle_alpha   90.00000000
_cell_angle_beta   90.00000000
_cell_angle_gamma   90.00000000
_chemical_formula_structural   Mo5W
_chemical_formula_sum   'Mo5 W1'
_cell_volume   96.89932979
loop_
 _symmetry_equiv_pos_site_id
 _symmetry_equiv_pos_as_xyz
  1  'x, y, z'
loop_
 _atom_type_symbol
  Mo
  W
loop_
 _atom_site_type_symbol
 _atom_site_label
 _atom_site_symmetry_multiplicity
 _atom_site_fract_x
 _atom_site_fract_y
 _atom_site_fract_z
 _atom_site_occupancy
  Mo  Mo0  1  0.00008889  0.00000000  0.00000000  1
  Mo  Mo1  1  0.16671538  0.50000000  0.50000000  1
  Mo  Mo2  1  0.33333333  0.00000000  0.00000000  1
  Mo  Mo3  1  0.49995128  0.50000000  0.50000000  1
  Mo  Mo4  1  0.66657778  0.00000000  0.00000000  1
  W  W0  1  0.83333333  0.50000000  0.50000000  1
