# generated using pymatgen
data_1231_AgMn4
_symmetry_space_group_name_H-M   'I4/m'
_cell_length_a   5.72477711
_cell_length_b   5.72477711
_cell_length_c   4.44632470
_cell_angle_alpha   49.92685205
_cell_angle_beta   49.92685205
_cell_angle_gamma   90.00000000
_chemical_formula_structural   AgMn4
_chemical_formula_sum   'Ag1 Mn4'
_cell_volume   60.28167317
loop_
 _symmetry_equiv_pos_site_id
 _symmetry_equiv_pos_as_xyz
  1  'x, y, z'
loop_
 _atom_type_symbol
  Ag
  Mn
loop_
 _atom_site_type_symbol
 _atom_site_label
 _atom_site_symmetry_multiplicity
 _atom_site_fract_x
 _atom_site_fract_y
 _atom_site_fract_z
 _atom_site_occupancy
  Ag  Ag0  1  0.00000000  0.00000000  0.00000000  1
  Mn  Mn0  1  0.81320692  0.57868060  0.00000000  1
  Mn  Mn1  1  0.18679308  0.42131940  0.00000000  1
  Mn  Mn2  1  0.57868060  0.18679308  0.00000000  1
  Mn  Mn3  1  0.42131940  0.81320692  0.00000000  1
