# generated using pymatgen
data_1233_Ba2Ga2
_symmetry_space_group_name_H-M   'Pmmn'
_cell_length_a   3.99749620
_cell_length_b   4.96300714
_cell_length_c   7.43792877
_cell_angle_alpha   90.00000000
_cell_angle_beta   90.00000000
_cell_angle_gamma   90.00000000
_chemical_formula_structural   Ba2Ga2
_chemical_formula_sum   'Ba2 Ga2'
_cell_volume   147.56554786
loop_
 _symmetry_equiv_pos_site_id
 _symmetry_equiv_pos_as_xyz
  1  'x, y, z'
loop_
 _atom_type_symbol
  Ba
  Ga
loop_
 _atom_site_type_symbol
 _atom_site_label
 _atom_site_symmetry_multiplicity
 _atom_site_fract_x
 _atom_site_fract_y
 _atom_site_fract_z
 _atom_site_occupancy
  Ba  Ba0  1  0.00000000  0.00000000  0.07625971  1
  Ba  Ba1  1  0.50000000  0.50000000  0.67374029  1
  Ga  Ga0  1  0.00000000  0.00000000  0.50608144  1
  Ga  Ga1  1  0.50000000  0.50000000  0.24391856  1
