# generated using pymatgen
data_1234_SbGe3
_symmetry_space_group_name_H-M   'Imm2'
_cell_length_a   5.97887499
_cell_length_b   5.97887499
_cell_length_c   5.97887499
_cell_angle_alpha   149.62430115
_cell_angle_beta   127.32688805
_cell_angle_gamma   62.02476670
_chemical_formula_structural   SbGe3
_chemical_formula_sum   'Ge3 Sb1'
_cell_volume   85.16025269
loop_
 _symmetry_equiv_pos_site_id
 _symmetry_equiv_pos_as_xyz
  1  'x, y, z'
loop_
 _atom_type_symbol
  Ge
  Sb
loop_
 _atom_site_type_symbol
 _atom_site_label
 _atom_site_symmetry_multiplicity
 _atom_site_fract_x
 _atom_site_fract_y
 _atom_site_fract_z
 _atom_site_occupancy
  Ge  Ge0  1  0.75511108  0.75551010  0.99960098  1
  Ge  Ge1  1  0.24409089  0.24448990  0.99960098  1
  Ge  Ge2  1  0.16788473  0.50000000  0.66788473  1
  Sb  Sb0  1  0.66624330  1.00000000  0.66624330  1
