# generated using pymatgen
data_1236_Ag2Ge4
_symmetry_space_group_name_H-M   'Pnnm'
_cell_length_a   4.27273510
_cell_length_b   4.26974779
_cell_length_c   6.84191394
_cell_angle_alpha   90.00000000
_cell_angle_beta   90.00000000
_cell_angle_gamma   90.00000000
_chemical_formula_structural   Ag2Ge4
_chemical_formula_sum   'Ag2 Ge4'
_cell_volume   124.82046552
loop_
 _symmetry_equiv_pos_site_id
 _symmetry_equiv_pos_as_xyz
  1  'x, y, z'
loop_
 _atom_type_symbol
  Ag
  Ge
loop_
 _atom_site_type_symbol
 _atom_site_label
 _atom_site_symmetry_multiplicity
 _atom_site_fract_x
 _atom_site_fract_y
 _atom_site_fract_z
 _atom_site_occupancy
  Ag  Ag0  1  0.00000000  0.00000000  0.00000000  1
  Ag  Ag1  1  0.50000000  0.50000000  0.50000000  1
  Ge  Ge0  1  0.00000000  0.19613330  0.64035941  1
  Ge  Ge1  1  0.00000000  0.80386670  0.35964059  1
  Ge  Ge2  1  0.50000000  0.69613330  0.85964059  1
  Ge  Ge3  1  0.50000000  0.30386670  0.14035941  1
