# generated using pymatgen
data_1237_CaNi5
_symmetry_space_group_name_H-M   'P6/mmm'
_cell_length_a   4.88740594
_cell_length_b   4.88075965
_cell_length_c   3.90905648
_cell_angle_alpha   90.00000000
_cell_angle_beta   90.00000000
_cell_angle_gamma   120.06931891
_chemical_formula_structural   CaNi5
_chemical_formula_sum   'Ca1 Ni5'
_cell_volume   80.69834549
loop_
 _symmetry_equiv_pos_site_id
 _symmetry_equiv_pos_as_xyz
  1  'x, y, z'
loop_
 _atom_type_symbol
  Ca
  Ni
loop_
 _atom_site_type_symbol
 _atom_site_label
 _atom_site_symmetry_multiplicity
 _atom_site_fract_x
 _atom_site_fract_y
 _atom_site_fract_z
 _atom_site_occupancy
  Ca  Ca0  1  0.00005584  0.00005730  0.00000000  1
  Ni  Ni0  1  0.66666835  0.33331766  0.00000000  1
  Ni  Ni1  1  0.33332567  0.66670601  0.00000000  1
  Ni  Ni2  1  0.50003540  0.00001536  0.50000007  1
  Ni  Ni3  1  0.00001576  0.49997549  0.50000007  1
  Ni  Ni4  1  0.50000297  0.50003209  0.50000007  1
