# generated using pymatgen
data_1244_V10W6
_symmetry_space_group_name_H-M   'I4/mcm'
_cell_length_a   4.95004040
_cell_length_b   7.39148184
_cell_length_c   7.39181391
_cell_angle_alpha   96.43969406
_cell_angle_beta   109.56952746
_cell_angle_gamma   70.43672709
_chemical_formula_structural   V10W6
_chemical_formula_sum   'V10 W6'
_cell_volume   240.11941078
loop_
 _symmetry_equiv_pos_site_id
 _symmetry_equiv_pos_as_xyz
  1  'x, y, z'
loop_
 _atom_type_symbol
  V
  W
loop_
 _atom_site_type_symbol
 _atom_site_label
 _atom_site_symmetry_multiplicity
 _atom_site_fract_x
 _atom_site_fract_y
 _atom_site_fract_z
 _atom_site_occupancy
  V  V0  1  0.75049902  0.50000000  0.50057179  1
  V  V1  1  0.25048277  0.50000000  0.50058663  1
  V  V2  1  0.24554423  0.81724672  0.30796818  1
  V  V3  1  0.75486262  0.18354411  0.69260166  1
  V  V4  1  0.25494978  0.30793301  0.81744307  1
  V  V5  1  0.74575311  0.69254732  0.18373053  1
  V  V6  1  0.43840673  0.81645589  0.69260166  1
  V  V7  1  0.56279095  0.18275328  0.30796818  1
  V  V8  1  0.93830043  0.30745268  0.18373053  1
  V  V9  1  0.06288279  0.69206699  0.81744307  1
  W  W0  1  0.24997014  0.00005599  0.99955585  1
  W  W1  1  0.75002613  0.99994401  0.99955585  1
  W  W2  1  0.68122303  0.50000000  0.86228678  1
  W  W3  1  0.31961967  0.50000000  0.13922108  1
  W  W4  1  0.81990676  0.86154176  0.50070090  1
  W  W5  1  0.18144852  0.13845824  0.50070090  1
