# generated using pymatgen
data_1247_Ba2Ga2
_symmetry_space_group_name_H-M   'Cmcm'
_cell_length_a   7.14322494
_cell_length_b   7.14322494
_cell_length_c   4.48846525
_cell_angle_alpha   90.00000000
_cell_angle_beta   90.00000000
_cell_angle_gamma   140.20141863
_chemical_formula_structural   Ba2Ga2
_chemical_formula_sum   'Ba2 Ga2'
_cell_volume   146.59799186
loop_
 _symmetry_equiv_pos_site_id
 _symmetry_equiv_pos_as_xyz
  1  'x, y, z'
loop_
 _atom_type_symbol
  Ba
  Ga
loop_
 _atom_site_type_symbol
 _atom_site_label
 _atom_site_symmetry_multiplicity
 _atom_site_fract_x
 _atom_site_fract_y
 _atom_site_fract_z
 _atom_site_occupancy
  Ba  Ba0  1  0.64226169  0.35773831  0.75000000  1
  Ba  Ba1  1  0.35773831  0.64226169  0.25000000  1
  Ga  Ga0  1  0.94800430  0.05199570  0.75000000  1
  Ga  Ga1  1  0.05199570  0.94800430  0.25000000  1
