# generated using pymatgen
data_1248_Pd2Sn2
_symmetry_space_group_name_H-M   'Pmma'
_cell_length_a   3.20158227
_cell_length_b   4.90072412
_cell_length_c   4.88461930
_cell_angle_alpha   90.00000000
_cell_angle_beta   90.00000000
_cell_angle_gamma   90.00000000
_chemical_formula_structural   Pd2Sn2
_chemical_formula_sum   'Pd2 Sn2'
_cell_volume   76.64002584
loop_
 _symmetry_equiv_pos_site_id
 _symmetry_equiv_pos_as_xyz
  1  'x, y, z'
loop_
 _atom_type_symbol
  Pd
  Sn
loop_
 _atom_site_type_symbol
 _atom_site_label
 _atom_site_symmetry_multiplicity
 _atom_site_fract_x
 _atom_site_fract_y
 _atom_site_fract_z
 _atom_site_occupancy
  Pd  Pd0  1  0.00000000  0.00000000  0.96783877  1
  Pd  Pd1  1  0.00000000  0.50000000  0.36549456  1
  Sn  Sn0  1  0.50000000  0.00000000  0.44687772  1
  Sn  Sn1  1  0.50000000  0.50000000  0.88645561  1
