# generated using pymatgen
data_1250_Ag2Mn
_symmetry_space_group_name_H-M   'I4/mmm'
_cell_length_a   6.19249074
_cell_length_b   6.19249074
_cell_length_c   6.19249074
_cell_angle_alpha   152.31569195
_cell_angle_beta   152.31569195
_cell_angle_gamma   39.55246572
_chemical_formula_structural   Ag2Mn
_chemical_formula_sum   'Ag2 Mn1'
_cell_volume   51.16249348
loop_
 _symmetry_equiv_pos_site_id
 _symmetry_equiv_pos_as_xyz
  1  'x, y, z'
loop_
 _atom_type_symbol
  Ag
  Mn
loop_
 _atom_site_type_symbol
 _atom_site_label
 _atom_site_symmetry_multiplicity
 _atom_site_fract_x
 _atom_site_fract_y
 _atom_site_fract_z
 _atom_site_occupancy
  Ag  Ag0  1  0.99456814  0.99456814  0.00000000  1
  Ag  Ag1  1  0.67209852  0.67209852  0.00000000  1
  Mn  Mn0  1  0.33333333  0.33333333  0.00000000  1
