# generated using pymatgen
data_1254_P8Br16
_symmetry_space_group_name_H-M   'Fd -3 m'
_cell_length_a   9.89676446
_cell_length_b   9.89676446
_cell_length_c   9.89676446
_cell_angle_alpha   60.00000000
_cell_angle_beta   60.00000000
_cell_angle_gamma   60.00000000
_chemical_formula_structural   P8Br16
_chemical_formula_sum   'Br16 P8'
_cell_volume   685.43251899
loop_
 _symmetry_equiv_pos_site_id
 _symmetry_equiv_pos_as_xyz
  1  'x, y, z'
loop_
 _atom_type_symbol
  Br
  P
loop_
 _atom_site_type_symbol
 _atom_site_label
 _atom_site_symmetry_multiplicity
 _atom_site_fract_x
 _atom_site_fract_y
 _atom_site_fract_z
 _atom_site_occupancy
  Br  Br0  1  0.00000000  0.50000000  0.00000000  1
  Br  Br1  1  0.50000000  0.00000000  0.00000000  1
  Br  Br2  1  0.50000000  0.50000000  0.00000000  1
  Br  Br3  1  0.50000000  0.50000000  0.50000000  1
  Br  Br4  1  0.95354184  0.95354184  0.79645816  1
  Br  Br5  1  0.95354184  0.29645816  0.79645816  1
  Br  Br6  1  0.29645816  0.95354184  0.79645816  1
  Br  Br7  1  0.95354184  0.29645816  0.45354184  1
  Br  Br8  1  0.29645816  0.95354184  0.45354184  1
  Br  Br9  1  0.29645816  0.29645816  0.45354184  1
  Br  Br10  1  0.04645816  0.04645816  0.20354184  1
  Br  Br11  1  0.04645816  0.70354184  0.20354184  1
  Br  Br12  1  0.70354184  0.04645816  0.20354184  1
  Br  Br13  1  0.04645816  0.70354184  0.54645816  1
  Br  Br14  1  0.70354184  0.04645816  0.54645816  1
  Br  Br15  1  0.70354184  0.70354184  0.54645816  1
  P  P0  1  0.68331650  0.68331650  0.95005050  1
  P  P1  1  0.68331650  0.68331650  0.18331650  1
  P  P2  1  0.68331650  0.45005050  0.18331650  1
  P  P3  1  0.45005050  0.68331650  0.18331650  1
  P  P4  1  0.31668350  0.31668350  0.04994950  1
  P  P5  1  0.31668350  0.31668350  0.81668350  1
  P  P6  1  0.31668350  0.54994950  0.81668350  1
  P  P7  1  0.54994950  0.31668350  0.81668350  1
