# generated using pymatgen
data_1258_AgBr3
_symmetry_space_group_name_H-M   'Cmmm'
_cell_length_a   3.18714680
_cell_length_b   3.18714680
_cell_length_c   11.66665804
_cell_angle_alpha   90.00000000
_cell_angle_beta   90.00000000
_cell_angle_gamma   91.28494247
_chemical_formula_structural   AgBr3
_chemical_formula_sum   'Ag1 Br3'
_cell_volume   118.47899995
loop_
 _symmetry_equiv_pos_site_id
 _symmetry_equiv_pos_as_xyz
  1  'x, y, z'
loop_
 _atom_type_symbol
  Ag
  Br
loop_
 _atom_site_type_symbol
 _atom_site_label
 _atom_site_symmetry_multiplicity
 _atom_site_fract_x
 _atom_site_fract_y
 _atom_site_fract_z
 _atom_site_occupancy
  Ag  Ag0  1  0.00000000  0.00000000  0.00000000  1
  Br  Br0  1  0.50000000  0.50000000  0.83115613  1
  Br  Br1  1  0.00000000  0.00000000  0.50000000  1
  Br  Br2  1  0.50000000  0.50000000  0.16884387  1
