# generated using pymatgen
data_1268_Ca3W
_symmetry_space_group_name_H-M   'P4/mmm'
_cell_length_a   3.19852410
_cell_length_b   3.19852410
_cell_length_c   11.24550373
_cell_angle_alpha   90.00000000
_cell_angle_beta   90.00000000
_cell_angle_gamma   90.00000000
_chemical_formula_structural   Ca3W
_chemical_formula_sum   'Ca3 W1'
_cell_volume   115.04776036
loop_
 _symmetry_equiv_pos_site_id
 _symmetry_equiv_pos_as_xyz
  1  'x, y, z'
loop_
 _atom_type_symbol
  Ca
  W
loop_
 _atom_site_type_symbol
 _atom_site_label
 _atom_site_symmetry_multiplicity
 _atom_site_fract_x
 _atom_site_fract_y
 _atom_site_fract_z
 _atom_site_occupancy
  Ca  Ca0  1  0.50000000  0.50000000  0.79828535  1
  Ca  Ca1  1  0.00000000  0.00000000  0.50000000  1
  Ca  Ca2  1  0.50000000  0.50000000  0.20171465  1
  W  W0  1  0.00000000  0.00000000  0.00000000  1
