# generated using pymatgen
data_1269_PdSn3
_symmetry_space_group_name_H-M   'Cmmm'
_cell_length_a   3.35320399
_cell_length_b   3.35320399
_cell_length_c   8.29532692
_cell_angle_alpha   90.00000000
_cell_angle_beta   90.00000000
_cell_angle_gamma   91.40745824
_chemical_formula_structural   PdSn3
_chemical_formula_sum   'Pd1 Sn3'
_cell_volume   93.24432482
loop_
 _symmetry_equiv_pos_site_id
 _symmetry_equiv_pos_as_xyz
  1  'x, y, z'
loop_
 _atom_type_symbol
  Pd
  Sn
loop_
 _atom_site_type_symbol
 _atom_site_label
 _atom_site_symmetry_multiplicity
 _atom_site_fract_x
 _atom_site_fract_y
 _atom_site_fract_z
 _atom_site_occupancy
  Pd  Pd0  1  0.00000000  0.00000000  0.00000000  1
  Sn  Sn0  1  0.50000000  0.50000000  0.79528195  1
  Sn  Sn1  1  0.00000000  0.00000000  0.50000000  1
  Sn  Sn2  1  0.50000000  0.50000000  0.20471805  1
