# generated using pymatgen
data_1272_Ba6Ga2
_symmetry_space_group_name_H-M   'Cmcm'
_cell_length_a   8.30420556
_cell_length_b   8.30420556
_cell_length_c   5.79057049
_cell_angle_alpha   90.00000000
_cell_angle_beta   90.00000000
_cell_angle_gamma   120.12094481
_chemical_formula_structural   Ba6Ga2
_chemical_formula_sum   'Ba6 Ga2'
_cell_volume   345.39622893
loop_
 _symmetry_equiv_pos_site_id
 _symmetry_equiv_pos_as_xyz
  1  'x, y, z'
loop_
 _atom_type_symbol
  Ba
  Ga
loop_
 _atom_site_type_symbol
 _atom_site_label
 _atom_site_symmetry_multiplicity
 _atom_site_fract_x
 _atom_site_fract_y
 _atom_site_fract_z
 _atom_site_occupancy
  Ba  Ba0  1  0.18646136  0.81353864  0.75000000  1
  Ba  Ba1  1  0.81353864  0.18646136  0.25000000  1
  Ba  Ba2  1  0.63845363  0.81118621  0.75000000  1
  Ba  Ba3  1  0.36154637  0.18881379  0.25000000  1
  Ba  Ba4  1  0.81118621  0.63845363  0.25000000  1
  Ba  Ba5  1  0.18881379  0.36154637  0.75000000  1
  Ga  Ga0  1  0.65510754  0.34489246  0.75000000  1
  Ga  Ga1  1  0.34489246  0.65510754  0.25000000  1
