# generated using pymatgen
data_1273_Ag2Mn4
_symmetry_space_group_name_H-M   'I4/mcm'
_cell_length_a   5.17575737
_cell_length_b   5.17575737
_cell_length_c   5.17575737
_cell_angle_alpha   104.96689182
_cell_angle_beta   104.96689182
_cell_angle_gamma   118.91282346
_chemical_formula_structural   Ag2Mn4
_chemical_formula_sum   'Ag2 Mn4'
_cell_volume   104.52789689
loop_
 _symmetry_equiv_pos_site_id
 _symmetry_equiv_pos_as_xyz
  1  'x, y, z'
loop_
 _atom_type_symbol
  Ag
  Mn
loop_
 _atom_site_type_symbol
 _atom_site_label
 _atom_site_symmetry_multiplicity
 _atom_site_fract_x
 _atom_site_fract_y
 _atom_site_fract_z
 _atom_site_occupancy
  Ag  Ag0  1  0.25000000  0.25000000  0.00000000  1
  Ag  Ag1  1  0.75000000  0.75000000  0.00000000  1
  Mn  Mn0  1  0.14923225  0.35076775  0.50000000  1
  Mn  Mn1  1  0.35076775  0.85076775  0.20153550  1
  Mn  Mn2  1  0.64923225  0.14923225  0.79846450  1
  Mn  Mn3  1  0.85076775  0.64923225  0.50000000  1
