# generated using pymatgen
data_1278_CrNb3
_symmetry_space_group_name_H-M   'I4/mmm'
_cell_length_a   3.76679146
_cell_length_b   5.43481821
_cell_length_c   3.76679146
_cell_angle_alpha   69.72401311
_cell_angle_beta   90.00000000
_cell_angle_gamma   110.27598689
_chemical_formula_structural   CrNb3
_chemical_formula_sum   'Cr1 Nb3'
_cell_volume   67.21752918
loop_
 _symmetry_equiv_pos_site_id
 _symmetry_equiv_pos_as_xyz
  1  'x, y, z'
loop_
 _atom_type_symbol
  Cr
  Nb
loop_
 _atom_site_type_symbol
 _atom_site_label
 _atom_site_symmetry_multiplicity
 _atom_site_fract_x
 _atom_site_fract_y
 _atom_site_fract_z
 _atom_site_occupancy
  Cr  Cr0  1  0.00000000  0.00000000  0.00000000  1
  Nb  Nb0  1  0.25000000  0.50000000  0.25000000  1
  Nb  Nb1  1  0.50000000  0.00000000  0.50000000  1
  Nb  Nb2  1  0.75000000  0.50000000  0.75000000  1
