# generated using pymatgen
data_1281_Mn8W16
_symmetry_space_group_name_H-M   'Fd -3 m'
_cell_length_a   7.92786954
_cell_length_b   7.92786954
_cell_length_c   7.92786954
_cell_angle_alpha   60.00000000
_cell_angle_beta   60.00000000
_cell_angle_gamma   60.00000000
_chemical_formula_structural   Mn8W16
_chemical_formula_sum   'Mn8 W16'
_cell_volume   352.33394473
loop_
 _symmetry_equiv_pos_site_id
 _symmetry_equiv_pos_as_xyz
  1  'x, y, z'
loop_
 _atom_type_symbol
  Mn
  W
loop_
 _atom_site_type_symbol
 _atom_site_label
 _atom_site_symmetry_multiplicity
 _atom_site_fract_x
 _atom_site_fract_y
 _atom_site_fract_z
 _atom_site_occupancy
  Mn  Mn0  1  0.71457963  0.85626111  0.71457963  1
  Mn  Mn1  1  0.35626111  0.21457963  0.71457963  1
  Mn  Mn2  1  0.71457963  0.21457963  0.35626111  1
  Mn  Mn3  1  0.71457963  0.21457963  0.71457963  1
  Mn  Mn4  1  0.28542037  0.14373889  0.28542037  1
  Mn  Mn5  1  0.64373889  0.78542037  0.28542037  1
  Mn  Mn6  1  0.28542037  0.78542037  0.64373889  1
  Mn  Mn7  1  0.28542037  0.78542037  0.28542037  1
  W  W0  1  0.50000000  0.00000000  0.50000000  1
  W  W1  1  0.50000000  0.00000000  0.00000000  1
  W  W2  1  0.00000000  0.00000000  0.50000000  1
  W  W3  1  0.50000000  0.50000000  0.50000000  1
  W  W4  1  0.31103794  0.81103794  0.93896206  1
  W  W5  1  0.93896206  0.81103794  0.31103794  1
  W  W6  1  0.93896206  0.81103794  0.93896206  1
  W  W7  1  0.31103794  0.43896206  0.31103794  1
  W  W8  1  0.31103794  0.43896206  0.93896206  1
  W  W9  1  0.93896206  0.43896206  0.31103794  1
  W  W10  1  0.68896206  0.18896206  0.06103794  1
  W  W11  1  0.06103794  0.18896206  0.68896206  1
  W  W12  1  0.06103794  0.18896206  0.06103794  1
  W  W13  1  0.68896206  0.56103794  0.68896206  1
  W  W14  1  0.68896206  0.56103794  0.06103794  1
  W  W15  1  0.06103794  0.56103794  0.68896206  1
