# generated using pymatgen
data_1283_CaNi5
_symmetry_space_group_name_H-M   'P6/mmm'
_cell_length_a   4.86807566
_cell_length_b   4.85828504
_cell_length_c   3.88797942
_cell_angle_alpha   90.00000000
_cell_angle_beta   90.00000000
_cell_angle_gamma   120.08845087
_chemical_formula_structural   CaNi5
_chemical_formula_sum   'Ca1 Ni5'
_cell_volume   79.56226296
loop_
 _symmetry_equiv_pos_site_id
 _symmetry_equiv_pos_as_xyz
  1  'x, y, z'
loop_
 _atom_type_symbol
  Ca
  Ni
loop_
 _atom_site_type_symbol
 _atom_site_label
 _atom_site_symmetry_multiplicity
 _atom_site_fract_x
 _atom_site_fract_y
 _atom_site_fract_z
 _atom_site_occupancy
  Ca  Ca0  1  0.00002850  0.00004168  0.00000000  1
  Ni  Ni0  1  0.66666635  0.33330615  0.00000000  1
  Ni  Ni1  1  0.33336599  0.66672714  0.00000000  1
  Ni  Ni2  1  0.49999005  0.99997898  0.49999993  1
  Ni  Ni3  1  0.00003780  0.50001735  0.49999993  1
  Ni  Ni4  1  0.50001288  0.50003046  0.49999993  1
