# generated using pymatgen
data_1286_Ta2V4
_symmetry_space_group_name_H-M   'Cmcm'
_cell_length_a   3.14122005
_cell_length_b   6.81746333
_cell_length_c   4.31310943
_cell_angle_alpha   90.00000000
_cell_angle_beta   90.00000000
_cell_angle_gamma   76.68053061
_chemical_formula_structural   Ta2V4
_chemical_formula_sum   'Ta2 V4'
_cell_volume   89.88131312
loop_
 _symmetry_equiv_pos_site_id
 _symmetry_equiv_pos_as_xyz
  1  'x, y, z'
loop_
 _atom_type_symbol
  Ta
  V
loop_
 _atom_site_type_symbol
 _atom_site_label
 _atom_site_symmetry_multiplicity
 _atom_site_fract_x
 _atom_site_fract_y
 _atom_site_fract_z
 _atom_site_occupancy
  Ta  Ta0  1  0.91477759  0.17044481  0.25000000  1
  Ta  Ta1  1  0.08522241  0.82955519  0.75000000  1
  V  V0  1  0.59207710  0.81584580  0.25000000  1
  V  V1  1  0.40792290  0.18415420  0.75000000  1
  V  V2  1  0.24592864  0.50814272  0.25000000  1
  V  V3  1  0.75407136  0.49185728  0.75000000  1
