# generated using pymatgen
data_128_As4Br2
_symmetry_space_group_name_H-M   'I4_1/amd'
_cell_length_a   12.11038344
_cell_length_b   12.11038344
_cell_length_c   12.11038344
_cell_angle_alpha   163.13890306
_cell_angle_beta   163.13890306
_cell_angle_gamma   23.93285398
_chemical_formula_structural   As4Br2
_chemical_formula_sum   'As4 Br2'
_cell_volume   149.39015914
loop_
 _symmetry_equiv_pos_site_id
 _symmetry_equiv_pos_as_xyz
  1  'x, y, z'
loop_
 _atom_type_symbol
  As
  Br
loop_
 _atom_site_type_symbol
 _atom_site_label
 _atom_site_symmetry_multiplicity
 _atom_site_fract_x
 _atom_site_fract_y
 _atom_site_fract_z
 _atom_site_occupancy
  As  As0  1  0.59015604  0.59015604  0.00000000  1
  As  As1  1  0.65984396  0.15984396  0.50000000  1
  As  As2  1  0.40984396  0.40984396  0.00000000  1
  As  As3  1  0.84015604  0.34015604  0.50000000  1
  Br  Br0  1  0.00000000  0.00000000  0.00000000  1
  Br  Br1  1  0.25000000  0.75000000  0.50000000  1
