# generated using pymatgen
data_1292_CrNb2
_symmetry_space_group_name_H-M   'Fm -3 m'
_cell_length_a   6.01102965
_cell_length_b   6.01102965
_cell_length_c   6.01102965
_cell_angle_alpha   90.00000000
_cell_angle_beta   90.00000000
_cell_angle_gamma   90.00000000
_chemical_formula_structural   CrNb2
_chemical_formula_sum   'Cr4 Nb8'
_cell_volume   217.19339330
loop_
 _symmetry_equiv_pos_site_id
 _symmetry_equiv_pos_as_xyz
  1  'x, y, z'
loop_
 _atom_type_symbol
  Cr
  Nb
loop_
 _atom_site_type_symbol
 _atom_site_label
 _atom_site_symmetry_multiplicity
 _atom_site_fract_x
 _atom_site_fract_y
 _atom_site_fract_z
 _atom_site_occupancy
  Cr  Cr0  1  0.00000000  0.00000000  0.00000000  1
  Cr  Cr1  1  0.00000000  0.50000000  0.50000000  1
  Cr  Cr2  1  0.50000000  0.00000000  0.50000000  1
  Cr  Cr3  1  0.50000000  0.50000000  0.00000000  1
  Nb  Nb0  1  0.25334387  0.75334387  0.74665613  1
  Nb  Nb1  1  0.25334387  0.74665613  0.24665613  1
  Nb  Nb2  1  0.24665613  0.25334387  0.74665613  1
  Nb  Nb3  1  0.24665613  0.24665613  0.24665613  1
  Nb  Nb4  1  0.75334387  0.75334387  0.75334387  1
  Nb  Nb5  1  0.75334387  0.74665613  0.25334387  1
  Nb  Nb6  1  0.74665613  0.25334387  0.75334387  1
  Nb  Nb7  1  0.74665613  0.24665613  0.25334387  1
