# generated using pymatgen
data_1293_Au3Ir
_symmetry_space_group_name_H-M   'Immm'
_cell_length_a   5.73526106
_cell_length_b   5.73526106
_cell_length_c   5.73526106
_cell_angle_alpha   151.63008367
_cell_angle_beta   128.90674600
_cell_angle_gamma   59.47243287
_chemical_formula_structural   Au3Ir
_chemical_formula_sum   'Au3 Ir1'
_cell_volume   69.24410278
loop_
 _symmetry_equiv_pos_site_id
 _symmetry_equiv_pos_as_xyz
  1  'x, y, z'
loop_
 _atom_type_symbol
  Au
  Ir
loop_
 _atom_site_type_symbol
 _atom_site_label
 _atom_site_symmetry_multiplicity
 _atom_site_fract_x
 _atom_site_fract_y
 _atom_site_fract_z
 _atom_site_occupancy
  Au  Au0  1  0.99016756  0.99016756  0.00000000  1
  Au  Au1  1  0.25000000  0.75000000  0.50000000  1
  Au  Au2  1  0.50983244  0.50983244  1.00000000  1
  Ir  Ir0  1  0.75000000  0.25000000  0.50000000  1
