# generated using pymatgen
data_1302_Ir2Pb4
_symmetry_space_group_name_H-M   'I4/mcm'
_cell_length_a   5.67000020
_cell_length_b   5.67000020
_cell_length_c   5.67000020
_cell_angle_alpha   105.69815285
_cell_angle_beta   105.69815285
_cell_angle_gamma   117.31364594
_chemical_formula_structural   Ir2Pb4
_chemical_formula_sum   'Ir2 Pb4'
_cell_volume   138.32559226
loop_
 _symmetry_equiv_pos_site_id
 _symmetry_equiv_pos_as_xyz
  1  'x, y, z'
loop_
 _atom_type_symbol
  Ir
  Pb
loop_
 _atom_site_type_symbol
 _atom_site_label
 _atom_site_symmetry_multiplicity
 _atom_site_fract_x
 _atom_site_fract_y
 _atom_site_fract_z
 _atom_site_occupancy
  Ir  Ir0  1  0.75000000  0.75000000  0.00000000  1
  Ir  Ir1  1  0.25000000  0.25000000  0.00000000  1
  Pb  Pb0  1  0.33717226  0.16282774  0.50000000  1
  Pb  Pb1  1  0.66282774  0.83717226  0.50000000  1
  Pb  Pb2  1  0.16282774  0.66282774  0.82565548  1
  Pb  Pb3  1  0.83717226  0.33717226  0.17434452  1
