# generated using pymatgen
data_1305_GaW2
_symmetry_space_group_name_H-M   'I4/mmm'
_cell_length_a   4.93797828
_cell_length_b   4.93797828
_cell_length_c   4.93797828
_cell_angle_alpha   140.99432031
_cell_angle_beta   140.92843651
_cell_angle_gamma   56.39646783
_chemical_formula_structural   GaW2
_chemical_formula_sum   'Ga1 W2'
_cell_volume   47.38671540
loop_
 _symmetry_equiv_pos_site_id
 _symmetry_equiv_pos_as_xyz
  1  'x, y, z'
loop_
 _atom_type_symbol
  Ga
  W
loop_
 _atom_site_type_symbol
 _atom_site_label
 _atom_site_symmetry_multiplicity
 _atom_site_fract_x
 _atom_site_fract_y
 _atom_site_fract_z
 _atom_site_occupancy
  Ga  Ga0  1  0.00000000  0.00000000  0.00000000  1
  W  W0  1  0.67205789  0.67205789  0.00000000  1
  W  W1  1  0.32794211  0.32794211  1.00000000  1
