# generated using pymatgen
data_1310_Ag4Mn2
_symmetry_space_group_name_H-M   'I4_1/amd'
_cell_length_a   9.35691047
_cell_length_b   9.35691047
_cell_length_c   9.35691047
_cell_angle_alpha   158.32507703
_cell_angle_beta   158.32507703
_cell_angle_gamma   30.84151888
_chemical_formula_structural   Ag4Mn2
_chemical_formula_sum   'Ag4 Mn2'
_cell_volume   111.67562949
loop_
 _symmetry_equiv_pos_site_id
 _symmetry_equiv_pos_as_xyz
  1  'x, y, z'
loop_
 _atom_type_symbol
  Ag
  Mn
loop_
 _atom_site_type_symbol
 _atom_site_label
 _atom_site_symmetry_multiplicity
 _atom_site_fract_x
 _atom_site_fract_y
 _atom_site_fract_z
 _atom_site_occupancy
  Ag  Ag0  1  0.17816694  0.67816694  0.50000000  1
  Ag  Ag1  1  0.32183306  0.82183306  0.50000000  1
  Ag  Ag2  1  0.42816694  0.42816694  0.00000000  1
  Ag  Ag3  1  0.57183306  0.57183306  0.00000000  1
  Mn  Mn0  1  0.00000000  0.00000000  0.00000000  1
  Mn  Mn1  1  0.75000000  0.25000000  0.50000000  1
