# generated using pymatgen
data_131_NiSn
_symmetry_space_group_name_H-M   'P-6m2'
_cell_length_a   3.18541900
_cell_length_b   3.18540153
_cell_length_c   3.80562300
_cell_angle_alpha   90.00003103
_cell_angle_beta   90.00000000
_cell_angle_gamma   120.00034688
_chemical_formula_structural   NiSn
_chemical_formula_sum   'Ni1 Sn1'
_cell_volume   33.44149057
loop_
 _symmetry_equiv_pos_site_id
 _symmetry_equiv_pos_as_xyz
  1  'x, y, z'
loop_
 _atom_type_symbol
  Ni
  Sn
loop_
 _atom_site_type_symbol
 _atom_site_label
 _atom_site_symmetry_multiplicity
 _atom_site_fract_x
 _atom_site_fract_y
 _atom_site_fract_z
 _atom_site_occupancy
  Ni  Ni0  1  0.66666705  0.33333314  0.75000078  1
  Sn  Sn0  1  0.33333490  0.66666818  0.24999859  1
