# generated using pymatgen
data_132_Au2In4
_symmetry_space_group_name_H-M   'Pnnm'
_cell_length_a   3.67320061
_cell_length_b   6.52865302
_cell_length_c   6.58539223
_cell_angle_alpha   90.00000000
_cell_angle_beta   90.00000000
_cell_angle_gamma   90.00000000
_chemical_formula_structural   Au2In4
_chemical_formula_sum   'Au2 In4'
_cell_volume   157.92463519
loop_
 _symmetry_equiv_pos_site_id
 _symmetry_equiv_pos_as_xyz
  1  'x, y, z'
loop_
 _atom_type_symbol
  Au
  In
loop_
 _atom_site_type_symbol
 _atom_site_label
 _atom_site_symmetry_multiplicity
 _atom_site_fract_x
 _atom_site_fract_y
 _atom_site_fract_z
 _atom_site_occupancy
  Au  Au0  1  0.00000000  0.00000000  0.00000000  1
  Au  Au1  1  0.50000000  0.50000000  0.50000000  1
  In  In0  1  0.00000000  0.19918460  0.62622028  1
  In  In1  1  0.00000000  0.80081540  0.37377972  1
  In  In2  1  0.50000000  0.69918460  0.87377972  1
  In  In3  1  0.50000000  0.30081540  0.12622028  1
