# generated using pymatgen
data_133_AlNb5
_symmetry_space_group_name_H-M   'P4/mmm'
_cell_length_a   2.76915957
_cell_length_b   2.76915957
_cell_length_c   13.99388090
_cell_angle_alpha   90.00000000
_cell_angle_beta   90.00000000
_cell_angle_gamma   90.00000000
_chemical_formula_structural   AlNb5
_chemical_formula_sum   'Al1 Nb5'
_cell_volume   107.30850338
loop_
 _symmetry_equiv_pos_site_id
 _symmetry_equiv_pos_as_xyz
  1  'x, y, z'
loop_
 _atom_type_symbol
  Al
  Nb
loop_
 _atom_site_type_symbol
 _atom_site_label
 _atom_site_symmetry_multiplicity
 _atom_site_fract_x
 _atom_site_fract_y
 _atom_site_fract_z
 _atom_site_occupancy
  Al  Al0  1  0.50000000  0.50000000  0.00000000  1
  Nb  Nb0  1  0.00000000  0.00000000  0.84814598  1
  Nb  Nb1  1  0.00000000  0.00000000  0.15185402  1
  Nb  Nb2  1  0.50000000  0.50000000  0.67275167  1
  Nb  Nb3  1  0.50000000  0.50000000  0.32724833  1
  Nb  Nb4  1  0.00000000  0.00000000  0.50000000  1
