# generated using pymatgen
data_1353_Ni2Sb4
_symmetry_space_group_name_H-M   'I4/mcm'
_cell_length_a   5.43486998
_cell_length_b   5.43486998
_cell_length_c   5.43486998
_cell_angle_alpha   105.35868627
_cell_angle_beta   105.35868627
_cell_angle_gamma   118.05235956
_chemical_formula_structural   Ni2Sb4
_chemical_formula_sum   'Ni2 Sb4'
_cell_volume   121.47192515
loop_
 _symmetry_equiv_pos_site_id
 _symmetry_equiv_pos_as_xyz
  1  'x, y, z'
loop_
 _atom_type_symbol
  Ni
  Sb
loop_
 _atom_site_type_symbol
 _atom_site_label
 _atom_site_symmetry_multiplicity
 _atom_site_fract_x
 _atom_site_fract_y
 _atom_site_fract_z
 _atom_site_occupancy
  Ni  Ni0  1  0.75000000  0.75000000  0.00000000  1
  Ni  Ni1  1  0.25000000  0.25000000  0.00000000  1
  Sb  Sb0  1  0.33242637  0.16757363  0.50000000  1
  Sb  Sb1  1  0.66757363  0.83242637  0.50000000  1
  Sb  Sb2  1  0.16757363  0.66757363  0.83514727  1
  Sb  Sb3  1  0.83242637  0.33242637  0.16485273  1
