# generated using pymatgen
data_135_Pt8Sn4
_symmetry_space_group_name_H-M   'I4_1/amd'
_cell_length_a   13.05041672
_cell_length_b   13.05041672
_cell_length_c   13.05041672
_cell_angle_alpha   162.06502991
_cell_angle_beta   162.06502991
_cell_angle_gamma   25.46964139
_chemical_formula_structural   Pt8Sn4
_chemical_formula_sum   'Pt8 Sn4'
_cell_volume   210.69935625
loop_
 _symmetry_equiv_pos_site_id
 _symmetry_equiv_pos_as_xyz
  1  'x, y, z'
loop_
 _atom_type_symbol
  Pt
  Sn
loop_
 _atom_site_type_symbol
 _atom_site_label
 _atom_site_symmetry_multiplicity
 _atom_site_fract_x
 _atom_site_fract_y
 _atom_site_fract_z
 _atom_site_occupancy
  Pt  Pt0  1  0.74869440  0.74869440  0.00000000  1
  Pt  Pt1  1  0.25130560  0.25130560  0.00000000  1
  Pt  Pt2  1  0.99869440  0.49869440  0.50000000  1
  Pt  Pt3  1  0.50130560  0.00130560  0.50000000  1
  Pt  Pt4  1  0.58388153  0.58388154  0.00000000  1
  Pt  Pt5  1  0.41611847  0.41611846  0.00000000  1
  Pt  Pt6  1  0.83388153  0.33388154  0.50000000  1
  Pt  Pt7  1  0.66611847  0.16611846  0.50000000  1
  Sn  Sn0  1  0.92348556  0.92348557  0.00000000  1
  Sn  Sn1  1  0.07651444  0.07651443  0.00000000  1
  Sn  Sn2  1  0.17348556  0.67348557  0.50000000  1
  Sn  Sn3  1  0.32651444  0.82651443  0.50000000  1
