# generated using pymatgen
data_1363_BaFe2
_symmetry_space_group_name_H-M   'I4/mmm'
_cell_length_a   6.26570604
_cell_length_b   6.26570604
_cell_length_c   6.26570604
_cell_angle_alpha   148.91799003
_cell_angle_beta   148.86159060
_cell_angle_gamma   44.57357139
_chemical_formula_structural   BaFe2
_chemical_formula_sum   'Ba1 Fe2'
_cell_volume   65.47194241
loop_
 _symmetry_equiv_pos_site_id
 _symmetry_equiv_pos_as_xyz
  1  'x, y, z'
loop_
 _atom_type_symbol
  Ba
  Fe
loop_
 _atom_site_type_symbol
 _atom_site_label
 _atom_site_symmetry_multiplicity
 _atom_site_fract_x
 _atom_site_fract_y
 _atom_site_fract_z
 _atom_site_occupancy
  Ba  Ba0  1  0.00000000  0.00000000  0.00000000  1
  Fe  Fe0  1  0.71896851  0.71896851  0.00000000  1
  Fe  Fe1  1  0.28103149  0.28103149  0.00000000  1
