# generated using pymatgen
data_1370_Cr5Nb24
_symmetry_space_group_name_H-M   'I-43m'
_cell_length_a   8.77642355
_cell_length_b   8.77642355
_cell_length_c   8.77642355
_cell_angle_alpha   109.47122063
_cell_angle_beta   109.47122063
_cell_angle_gamma   109.47122063
_chemical_formula_structural   Cr5Nb24
_chemical_formula_sum   'Cr5 Nb24'
_cell_volume   520.39226397
loop_
 _symmetry_equiv_pos_site_id
 _symmetry_equiv_pos_as_xyz
  1  'x, y, z'
loop_
 _atom_type_symbol
  Cr
  Nb
loop_
 _atom_site_type_symbol
 _atom_site_label
 _atom_site_symmetry_multiplicity
 _atom_site_fract_x
 _atom_site_fract_y
 _atom_site_fract_z
 _atom_site_occupancy
  Cr  Cr0  1  0.00000000  0.62062569  0.00000000  1
  Cr  Cr1  1  0.62062569  0.00000000  0.00000000  1
  Cr  Cr2  1  0.00000000  0.00000000  0.62062569  1
  Cr  Cr3  1  0.37937431  0.37937431  0.37937431  1
  Cr  Cr4  1  0.00000000  0.00000000  0.00000000  1
  Nb  Nb0  1  0.18419518  0.36860166  0.00000000  1
  Nb  Nb1  1  0.36860166  0.18419518  0.00000000  1
  Nb  Nb2  1  0.81580482  0.81580482  0.18440647  1
  Nb  Nb3  1  0.63139834  0.63139834  0.81559353  1
  Nb  Nb4  1  0.81580482  0.18440647  0.81580482  1
  Nb  Nb5  1  0.63139834  0.81559353  0.63139834  1
  Nb  Nb6  1  0.36860166  0.00000000  0.18419518  1
  Nb  Nb7  1  0.18419518  0.00000000  0.36860166  1
  Nb  Nb8  1  1.00000000  0.36860166  0.18419518  1
  Nb  Nb9  1  1.00000000  0.18419518  0.36860166  1
  Nb  Nb10  1  0.81559353  0.63139834  0.63139834  1
  Nb  Nb11  1  0.18440647  0.81580482  0.81580482  1
  Nb  Nb12  1  0.68335261  0.40626360  0.00000000  1
  Nb  Nb13  1  0.40626360  0.68335261  0.00000000  1
  Nb  Nb14  1  0.31664739  0.31664739  0.72291099  1
  Nb  Nb15  1  0.59373640  0.59373640  0.27708901  1
  Nb  Nb16  1  0.31664739  0.72291099  0.31664739  1
  Nb  Nb17  1  0.59373640  0.27708901  0.59373640  1
  Nb  Nb18  1  0.40626360  0.00000000  0.68335261  1
  Nb  Nb19  1  0.68335261  0.00000000  0.40626360  1
  Nb  Nb20  1  1.00000000  0.40626360  0.68335261  1
  Nb  Nb21  1  0.00000000  0.68335261  0.40626360  1
  Nb  Nb22  1  0.27708901  0.59373640  0.59373640  1
  Nb  Nb23  1  0.72291099  0.31664739  0.31664739  1
