# generated using pymatgen
data_137_Au3P
_symmetry_space_group_name_H-M   'Immm'
_cell_length_a   5.44790785
_cell_length_b   5.44790785
_cell_length_c   5.44790785
_cell_angle_alpha   145.42382565
_cell_angle_beta   128.65185553
_cell_angle_gamma   63.38718394
_chemical_formula_structural   Au3P
_chemical_formula_sum   'Au3 P1'
_cell_volume   70.85434765
loop_
 _symmetry_equiv_pos_site_id
 _symmetry_equiv_pos_as_xyz
  1  'x, y, z'
loop_
 _atom_type_symbol
  Au
  P
loop_
 _atom_site_type_symbol
 _atom_site_label
 _atom_site_symmetry_multiplicity
 _atom_site_fract_x
 _atom_site_fract_y
 _atom_site_fract_z
 _atom_site_occupancy
  Au  Au0  1  0.02446037  0.02446037  0.00000000  1
  Au  Au1  1  0.75000000  0.25000000  0.50000000  1
  Au  Au2  1  0.47553963  0.47553963  0.00000000  1
  P  P0  1  0.25000000  0.75000000  0.50000000  1
