# generated using pymatgen
data_1381_Mo4Pb4
_symmetry_space_group_name_H-M   'Pnma'
_cell_length_a   4.84201554
_cell_length_b   5.45615852
_cell_length_c   6.27216496
_cell_angle_alpha   90.00000000
_cell_angle_beta   90.00000000
_cell_angle_gamma   90.00000000
_chemical_formula_structural   Mo4Pb4
_chemical_formula_sum   'Mo4 Pb4'
_cell_volume   165.70309888
loop_
 _symmetry_equiv_pos_site_id
 _symmetry_equiv_pos_as_xyz
  1  'x, y, z'
loop_
 _atom_type_symbol
  Mo
  Pb
loop_
 _atom_site_type_symbol
 _atom_site_label
 _atom_site_symmetry_multiplicity
 _atom_site_fract_x
 _atom_site_fract_y
 _atom_site_fract_z
 _atom_site_occupancy
  Mo  Mo0  1  0.75000000  0.82331802  0.18282759  1
  Mo  Mo1  1  0.25000000  0.32331802  0.31717241  1
  Mo  Mo2  1  0.75000000  0.67668198  0.68282759  1
  Mo  Mo3  1  0.25000000  0.17668198  0.81717241  1
  Pb  Pb0  1  0.75000000  0.31360081  0.05460721  1
  Pb  Pb1  1  0.25000000  0.81360081  0.44539279  1
  Pb  Pb2  1  0.75000000  0.18639919  0.55460721  1
  Pb  Pb3  1  0.25000000  0.68639919  0.94539279  1
