# generated using pymatgen
data_1389_Cu2Ga4
_symmetry_space_group_name_H-M   'Cmcm'
_cell_length_a   6.77749761
_cell_length_b   6.77749761
_cell_length_c   4.81163385
_cell_angle_alpha   90.00000000
_cell_angle_beta   90.00000000
_cell_angle_gamma   154.84938407
_chemical_formula_structural   Cu2Ga4
_chemical_formula_sum   'Cu2 Ga4'
_cell_volume   93.93327857
loop_
 _symmetry_equiv_pos_site_id
 _symmetry_equiv_pos_as_xyz
  1  'x, y, z'
loop_
 _atom_type_symbol
  Cu
  Ga
loop_
 _atom_site_type_symbol
 _atom_site_label
 _atom_site_symmetry_multiplicity
 _atom_site_fract_x
 _atom_site_fract_y
 _atom_site_fract_z
 _atom_site_occupancy
  Cu  Cu0  1  0.66996083  0.33003917  0.00000000  1
  Cu  Cu1  1  0.44115029  0.55884971  0.50000000  1
  Ga  Ga0  1  0.00565332  0.99434668  0.00000000  1
  Ga  Ga1  1  0.33044168  0.66955832  0.00000000  1
  Ga  Ga2  1  0.78066943  0.21933057  0.50000000  1
  Ga  Ga3  1  0.10545779  0.89454221  0.50000000  1
