# generated using pymatgen
data_1390_Ga2Pt4
_symmetry_space_group_name_H-M   'Cmcm'
_cell_length_a   2.86421990
_cell_length_b   6.92933778
_cell_length_c   4.83035237
_cell_angle_alpha   90.00000000
_cell_angle_beta   90.00000000
_cell_angle_gamma   78.07252287
_chemical_formula_structural   Ga2Pt4
_chemical_formula_sum   'Ga2 Pt4'
_cell_volume   93.79890731
loop_
 _symmetry_equiv_pos_site_id
 _symmetry_equiv_pos_as_xyz
  1  'x, y, z'
loop_
 _atom_type_symbol
  Ga
  Pt
loop_
 _atom_site_type_symbol
 _atom_site_label
 _atom_site_symmetry_multiplicity
 _atom_site_fract_x
 _atom_site_fract_y
 _atom_site_fract_z
 _atom_site_occupancy
  Ga  Ga0  1  0.98752288  0.02495423  0.00000000  1
  Ga  Ga1  1  0.56803267  0.86393466  0.50000000  1
  Pt  Pt0  1  0.64607168  0.70785664  0.00000000  1
  Pt  Pt1  1  0.33145525  0.33708949  0.00000000  1
  Pt  Pt2  1  0.22410030  0.55179940  0.50000000  1
  Pt  Pt3  1  0.90948387  0.18103225  0.50000000  1
