# generated using pymatgen
data_1397_Cr20W10
_symmetry_space_group_name_H-M   'P4_2/mnm'
_cell_length_a   9.19520344
_cell_length_b   9.19520344
_cell_length_c   4.76172203
_cell_angle_alpha   90.00000000
_cell_angle_beta   90.00000000
_cell_angle_gamma   90.00000000
_chemical_formula_structural   Cr20W10
_chemical_formula_sum   'Cr20 W10'
_cell_volume   402.61200828
loop_
 _symmetry_equiv_pos_site_id
 _symmetry_equiv_pos_as_xyz
  1  'x, y, z'
loop_
 _atom_type_symbol
  Cr
  W
loop_
 _atom_site_type_symbol
 _atom_site_label
 _atom_site_symmetry_multiplicity
 _atom_site_fract_x
 _atom_site_fract_y
 _atom_site_fract_z
 _atom_site_occupancy
  Cr  Cr0  1  0.40279590  0.59720410  0.00000000  1
  Cr  Cr1  1  0.59720410  0.40279590  0.00000000  1
  Cr  Cr2  1  0.90279590  0.90279590  0.50000000  1
  Cr  Cr3  1  0.09720410  0.09720410  0.50000000  1
  Cr  Cr4  1  0.06892936  0.25641469  0.00000000  1
  Cr  Cr5  1  0.93107064  0.74358531  0.00000000  1
  Cr  Cr6  1  0.24358531  0.56892936  0.50000000  1
  Cr  Cr7  1  0.75641469  0.43107064  0.50000000  1
  Cr  Cr8  1  0.43107064  0.75641469  0.50000000  1
  Cr  Cr9  1  0.56892936  0.24358531  0.50000000  1
  Cr  Cr10  1  0.25641469  0.06892936  0.00000000  1
  Cr  Cr11  1  0.74358531  0.93107064  0.00000000  1
  Cr  Cr12  1  0.31392243  0.31392243  0.24505668  1
  Cr  Cr13  1  0.68607757  0.68607757  0.24505668  1
  Cr  Cr14  1  0.18607757  0.81392243  0.74505668  1
  Cr  Cr15  1  0.81392243  0.18607757  0.74505668  1
  Cr  Cr16  1  0.18607757  0.81392243  0.25494332  1
  Cr  Cr17  1  0.81392243  0.18607757  0.25494332  1
  Cr  Cr18  1  0.31392243  0.31392243  0.75494332  1
  Cr  Cr19  1  0.68607757  0.68607757  0.75494332  1
  W  W0  1  0.00000000  0.00000000  0.00000000  1
  W  W1  1  0.50000000  0.50000000  0.50000000  1
  W  W2  1  0.13690485  0.54004776  0.00000000  1
  W  W3  1  0.86309515  0.45995224  0.00000000  1
  W  W4  1  0.95995224  0.63690485  0.50000000  1
  W  W5  1  0.04004776  0.36309515  0.50000000  1
  W  W6  1  0.36309515  0.04004776  0.50000000  1
  W  W7  1  0.63690485  0.95995224  0.50000000  1
  W  W8  1  0.54004776  0.13690485  0.00000000  1
  W  W9  1  0.45995224  0.86309515  0.00000000  1
