# generated using pymatgen
data_139_NpSb
_symmetry_space_group_name_H-M   'Fm -3 m'
_cell_length_a   4.39523812
_cell_length_b   4.39523812
_cell_length_c   4.39523812
_cell_angle_alpha   120.00000000
_cell_angle_beta   90.00000000
_cell_angle_gamma   120.00000000
_chemical_formula_structural   NpSb
_chemical_formula_sum   'Np1 Sb1'
_cell_volume   60.03883113
loop_
 _symmetry_equiv_pos_site_id
 _symmetry_equiv_pos_as_xyz
  1  'x, y, z'
loop_
 _atom_type_symbol
  Np
  Sb
loop_
 _atom_site_type_symbol
 _atom_site_label
 _atom_site_symmetry_multiplicity
 _atom_site_fract_x
 _atom_site_fract_y
 _atom_site_fract_z
 _atom_site_occupancy
  Np  Np0  1  0.00000000  0.00000000  0.00000000  1
  Sb  Sb0  1  0.50000000  0.00000000  0.50000000  1
