# generated using pymatgen
data_1401_Ir2Na2
_symmetry_space_group_name_H-M   'Pmmn'
_cell_length_a   2.75815664
_cell_length_b   4.47615631
_cell_length_c   5.46034857
_cell_angle_alpha   90.00000000
_cell_angle_beta   90.00000000
_cell_angle_gamma   90.00000000
_chemical_formula_structural   Ir2Na2
_chemical_formula_sum   'Ir2 Na2'
_cell_volume   67.41313718
loop_
 _symmetry_equiv_pos_site_id
 _symmetry_equiv_pos_as_xyz
  1  'x, y, z'
loop_
 _atom_type_symbol
  Ir
  Na
loop_
 _atom_site_type_symbol
 _atom_site_label
 _atom_site_symmetry_multiplicity
 _atom_site_fract_x
 _atom_site_fract_y
 _atom_site_fract_z
 _atom_site_occupancy
  Ir  Ir0  1  0.00000000  0.00000000  0.96982975  1
  Ir  Ir1  1  0.50000000  0.50000000  0.86350359  1
  Na  Na0  1  0.50000000  0.00000000  0.50065592  1
  Na  Na1  1  0.00000000  0.50000000  0.33267741  1
