# generated using pymatgen
data_1409_Cu5Br
_symmetry_space_group_name_H-M   'Cmmm'
_cell_length_a   6.29840347
_cell_length_b   6.29840347
_cell_length_c   3.71317992
_cell_angle_alpha   90.00000000
_cell_angle_beta   90.00000000
_cell_angle_gamma   145.46591880
_chemical_formula_structural   Cu5Br
_chemical_formula_sum   'Br1 Cu5'
_cell_volume   83.50464031
loop_
 _symmetry_equiv_pos_site_id
 _symmetry_equiv_pos_as_xyz
  1  'x, y, z'
loop_
 _atom_type_symbol
  Br
  Cu
loop_
 _atom_site_type_symbol
 _atom_site_label
 _atom_site_symmetry_multiplicity
 _atom_site_fract_x
 _atom_site_fract_y
 _atom_site_fract_z
 _atom_site_occupancy
  Br  Br0  1  0.02765506  0.97234494  0.00000000  1
  Cu  Cu0  1  0.21006219  0.78993781  0.50000000  1
  Cu  Cu1  1  0.35037752  0.64962248  0.00000000  1
  Cu  Cu2  1  0.52799631  0.47200369  0.50000000  1
  Cu  Cu3  1  0.70512412  0.29487588  0.00000000  1
  Cu  Cu4  1  0.84545146  0.15454854  0.50000000  1
