# generated using pymatgen
data_140_CrNb5
_symmetry_space_group_name_H-M   'F-43m'
_cell_length_a   5.35225984
_cell_length_b   5.35225984
_cell_length_c   5.35225984
_cell_angle_alpha   60.00000000
_cell_angle_beta   60.00000000
_cell_angle_gamma   60.00000000
_chemical_formula_structural   CrNb5
_chemical_formula_sum   'Cr1 Nb5'
_cell_volume   108.41679656
loop_
 _symmetry_equiv_pos_site_id
 _symmetry_equiv_pos_as_xyz
  1  'x, y, z'
loop_
 _atom_type_symbol
  Cr
  Nb
loop_
 _atom_site_type_symbol
 _atom_site_label
 _atom_site_symmetry_multiplicity
 _atom_site_fract_x
 _atom_site_fract_y
 _atom_site_fract_z
 _atom_site_occupancy
  Cr  Cr0  1  0.00000000  0.00000000  0.00000000  1
  Nb  Nb0  1  0.37497193  0.37497193  0.37497193  1
  Nb  Nb1  1  0.75000000  0.75000000  0.75000000  1
  Nb  Nb2  1  0.37497193  0.37497193  0.87508422  1
  Nb  Nb3  1  0.87508422  0.37497193  0.37497193  1
  Nb  Nb4  1  0.37497193  0.87508422  0.37497193  1
