# generated using pymatgen
data_1413_Nb2Pb2
_symmetry_space_group_name_H-M   'Cmcm'
_cell_length_a   5.88113436
_cell_length_b   5.88113436
_cell_length_c   4.55266641
_cell_angle_alpha   90.00000000
_cell_angle_beta   90.00000000
_cell_angle_gamma   144.26919275
_chemical_formula_structural   Nb2Pb2
_chemical_formula_sum   'Nb2 Pb2'
_cell_volume   91.95690587
loop_
 _symmetry_equiv_pos_site_id
 _symmetry_equiv_pos_as_xyz
  1  'x, y, z'
loop_
 _atom_type_symbol
  Nb
  Pb
loop_
 _atom_site_type_symbol
 _atom_site_label
 _atom_site_symmetry_multiplicity
 _atom_site_fract_x
 _atom_site_fract_y
 _atom_site_fract_z
 _atom_site_occupancy
  Nb  Nb0  1  0.92276889  0.07723111  0.75000000  1
  Nb  Nb1  1  0.07723111  0.92276889  0.25000000  1
  Pb  Pb0  1  0.64458626  0.35541374  0.75000000  1
  Pb  Pb1  1  0.35541374  0.64458626  0.25000000  1
