# generated using pymatgen
data_1421_In2Ta
_symmetry_space_group_name_H-M   'I4/mmm'
_cell_length_a   7.55431226
_cell_length_b   7.55431226
_cell_length_c   7.55431226
_cell_angle_alpha   157.12156160
_cell_angle_beta   157.12156160
_cell_angle_gamma   32.57753780
_chemical_formula_structural   In2Ta
_chemical_formula_sum   'In2 Ta1'
_cell_volume   65.10617246
loop_
 _symmetry_equiv_pos_site_id
 _symmetry_equiv_pos_as_xyz
  1  'x, y, z'
loop_
 _atom_type_symbol
  In
  Ta
loop_
 _atom_site_type_symbol
 _atom_site_label
 _atom_site_symmetry_multiplicity
 _atom_site_fract_x
 _atom_site_fract_y
 _atom_site_fract_z
 _atom_site_occupancy
  In  In0  1  0.15270467  0.15270467  0.00000000  1
  In  In1  1  0.84729533  0.84729533  0.00000000  1
  Ta  Ta0  1  0.50000000  0.50000000  0.00000000  1
