# generated using pymatgen
data_1424_Pd12Sb4
_symmetry_space_group_name_H-M   'Pnma'
_cell_length_a   5.67520621
_cell_length_b   5.68616180
_cell_length_c   8.56519869
_cell_angle_alpha   90.00000000
_cell_angle_beta   90.00000000
_cell_angle_gamma   90.00000000
_chemical_formula_structural   Pd12Sb4
_chemical_formula_sum   'Pd12 Sb4'
_cell_volume   276.40016735
loop_
 _symmetry_equiv_pos_site_id
 _symmetry_equiv_pos_as_xyz
  1  'x, y, z'
loop_
 _atom_type_symbol
  Pd
  Sb
loop_
 _atom_site_type_symbol
 _atom_site_label
 _atom_site_symmetry_multiplicity
 _atom_site_fract_x
 _atom_site_fract_y
 _atom_site_fract_z
 _atom_site_occupancy
  Pd  Pd0  1  0.05695137  0.96882753  0.75000000  1
  Pd  Pd1  1  0.55695137  0.53117247  0.25000000  1
  Pd  Pd2  1  0.44304863  0.46882753  0.75000000  1
  Pd  Pd3  1  0.94304863  0.03117247  0.25000000  1
  Pd  Pd4  1  0.70356598  0.19610038  0.97666635  1
  Pd  Pd5  1  0.20356598  0.30389962  0.02333365  1
  Pd  Pd6  1  0.79643402  0.69610038  0.52333365  1
  Pd  Pd7  1  0.29643402  0.80389962  0.47666635  1
  Pd  Pd8  1  0.29643402  0.80389962  0.02333365  1
  Pd  Pd9  1  0.79643402  0.69610038  0.97666635  1
  Pd  Pd10  1  0.20356598  0.30389962  0.47666635  1
  Pd  Pd11  1  0.70356598  0.19610038  0.52333365  1
  Sb  Sb0  1  0.52549468  0.93349779  0.75000000  1
  Sb  Sb1  1  0.02549468  0.56650221  0.25000000  1
  Sb  Sb2  1  0.97450532  0.43349779  0.75000000  1
  Sb  Sb3  1  0.47450532  0.06650221  0.25000000  1
