# generated using pymatgen
data_1426_In4Sn2
_symmetry_space_group_name_H-M   'Cm'
_cell_length_a   6.75943168
_cell_length_b   6.75943168
_cell_length_c   7.68986577
_cell_angle_alpha   75.03210764
_cell_angle_beta   75.03210764
_cell_angle_gamma   29.06357097
_chemical_formula_structural   In4Sn2
_chemical_formula_sum   'In4 Sn2'
_cell_volume   164.49098185
loop_
 _symmetry_equiv_pos_site_id
 _symmetry_equiv_pos_as_xyz
  1  'x, y, z'
loop_
 _atom_type_symbol
  In
  Sn
loop_
 _atom_site_type_symbol
 _atom_site_label
 _atom_site_symmetry_multiplicity
 _atom_site_fract_x
 _atom_site_fract_y
 _atom_site_fract_z
 _atom_site_occupancy
  In  In0  1  0.99946797  0.99946797  0.00118493  1
  In  In1  1  0.33367775  0.33367775  0.33456964  1
  In  In2  1  0.66615895  0.66615895  0.66743893  1
  In  In3  1  0.61147775  0.61147775  0.27692329  1
  Sn  Sn0  1  0.94369555  0.94369555  0.61612810  1
  Sn  Sn1  1  0.27885536  0.27885536  0.93708843  1
