# generated using pymatgen
data_142_Ce12Ga8
_symmetry_space_group_name_H-M   'P4_2/mnm'
_cell_length_a   8.60511200
_cell_length_b   8.60511200
_cell_length_c   7.71183900
_cell_angle_alpha   90.00000000
_cell_angle_beta   90.00000000
_cell_angle_gamma   90.00000000
_chemical_formula_structural   Ce12Ga8
_chemical_formula_sum   'Ce12 Ga8'
_cell_volume   571.04588821
loop_
 _symmetry_equiv_pos_site_id
 _symmetry_equiv_pos_as_xyz
  1  'x, y, z'
loop_
 _atom_type_symbol
  Ce
  Ga
loop_
 _atom_site_type_symbol
 _atom_site_label
 _atom_site_symmetry_multiplicity
 _atom_site_fract_x
 _atom_site_fract_y
 _atom_site_fract_z
 _atom_site_occupancy
  Ce  Ce0  1  0.80394191  0.19605672  0.00000000  1
  Ce  Ce1  1  0.34952945  0.34952945  0.00000000  1
  Ce  Ce2  1  0.65047035  0.65047035  0.00000000  1
  Ce  Ce3  1  0.19605672  0.80394191  0.00000000  1
  Ce  Ce4  1  0.50000048  0.00000000  0.25000004  1
  Ce  Ce5  1  0.00000000  0.50000048  0.25000004  1
  Ce  Ce6  1  0.84952877  0.15047103  0.50000009  1
  Ce  Ce7  1  0.30394260  0.30394260  0.50000009  1
  Ce  Ce8  1  0.69605720  0.69605720  0.50000009  1
  Ce  Ce9  1  0.15047103  0.84952877  0.50000009  1
  Ce  Ce10  1  0.50000048  0.00000000  0.75000013  1
  Ce  Ce11  1  0.00000000  0.50000048  0.75000013  1
  Ga  Ga0  1  0.12060854  0.12060854  0.19375276  1
  Ga  Ga1  1  0.87939125  0.87939125  0.19375276  1
  Ga  Ga2  1  0.62060903  0.37939194  0.30624733  1
  Ga  Ga3  1  0.37939194  0.62060903  0.30624733  1
  Ga  Ga4  1  0.62060903  0.37939194  0.69375155  1
  Ga  Ga5  1  0.37939194  0.62060903  0.69375155  1
  Ga  Ga6  1  0.12060854  0.12060854  0.80624742  1
  Ga  Ga7  1  0.87939125  0.87939125  0.80624742  1
