# generated using pymatgen
data_1431_Ba2Br
_symmetry_space_group_name_H-M   'I4/mmm'
_cell_length_a   8.54956418
_cell_length_b   8.54956418
_cell_length_c   8.54956418
_cell_angle_alpha   151.90295404
_cell_angle_beta   151.90295404
_cell_angle_gamma   40.15503874
_chemical_formula_structural   Ba2Br
_chemical_formula_sum   'Ba2 Br1'
_cell_volume   138.34350669
loop_
 _symmetry_equiv_pos_site_id
 _symmetry_equiv_pos_as_xyz
  1  'x, y, z'
loop_
 _atom_type_symbol
  Ba
  Br
loop_
 _atom_site_type_symbol
 _atom_site_label
 _atom_site_symmetry_multiplicity
 _atom_site_fract_x
 _atom_site_fract_y
 _atom_site_fract_z
 _atom_site_occupancy
  Ba  Ba0  1  0.64168795  0.64168795  0.00000000  1
  Ba  Ba1  1  0.35831205  0.35831205  0.00000000  1
  Br  Br0  1  0.00000000  0.00000000  0.00000000  1
