# generated using pymatgen
data_1432_Pb2Ta2
_symmetry_space_group_name_H-M   'P4/nmm'
_cell_length_a   3.01942938
_cell_length_b   3.01942938
_cell_length_c   10.91546656
_cell_angle_alpha   90.00000000
_cell_angle_beta   90.00000000
_cell_angle_gamma   90.00000000
_chemical_formula_structural   Pb2Ta2
_chemical_formula_sum   'Pb2 Ta2'
_cell_volume   99.51580412
loop_
 _symmetry_equiv_pos_site_id
 _symmetry_equiv_pos_as_xyz
  1  'x, y, z'
loop_
 _atom_type_symbol
  Pb
  Ta
loop_
 _atom_site_type_symbol
 _atom_site_label
 _atom_site_symmetry_multiplicity
 _atom_site_fract_x
 _atom_site_fract_y
 _atom_site_fract_z
 _atom_site_occupancy
  Pb  Pb0  1  0.00000000  0.00000000  0.04992009  1
  Pb  Pb1  1  0.50000000  0.50000000  0.70007991  1
  Ta  Ta0  1  0.00000000  0.00000000  0.47272282  1
  Ta  Ta1  1  0.50000000  0.50000000  0.27727718  1
