# generated using pymatgen
data_1433_Cr16W14
_symmetry_space_group_name_H-M   'P4_2/mnm'
_cell_length_a   9.36045065
_cell_length_b   9.36045065
_cell_length_c   4.81549165
_cell_angle_alpha   90.00000000
_cell_angle_beta   90.00000000
_cell_angle_gamma   90.00000000
_chemical_formula_structural   Cr16W14
_chemical_formula_sum   'Cr16 W14'
_cell_volume   421.92392253
loop_
 _symmetry_equiv_pos_site_id
 _symmetry_equiv_pos_as_xyz
  1  'x, y, z'
loop_
 _atom_type_symbol
  Cr
  W
loop_
 _atom_site_type_symbol
 _atom_site_label
 _atom_site_symmetry_multiplicity
 _atom_site_fract_x
 _atom_site_fract_y
 _atom_site_fract_z
 _atom_site_occupancy
  Cr  Cr0  1  0.06767689  0.25605059  0.00000000  1
  Cr  Cr1  1  0.93232311  0.74394941  0.00000000  1
  Cr  Cr2  1  0.24394941  0.56767689  0.50000000  1
  Cr  Cr3  1  0.75605059  0.43232311  0.50000000  1
  Cr  Cr4  1  0.43232311  0.75605059  0.50000000  1
  Cr  Cr5  1  0.56767689  0.24394941  0.50000000  1
  Cr  Cr6  1  0.25605059  0.06767689  0.00000000  1
  Cr  Cr7  1  0.74394941  0.93232311  0.00000000  1
  Cr  Cr8  1  0.31392192  0.31392192  0.24410399  1
  Cr  Cr9  1  0.68607808  0.68607808  0.24410399  1
  Cr  Cr10  1  0.18607808  0.81392192  0.74410399  1
  Cr  Cr11  1  0.81392192  0.18607808  0.74410399  1
  Cr  Cr12  1  0.18607808  0.81392192  0.25589601  1
  Cr  Cr13  1  0.81392192  0.18607808  0.25589601  1
  Cr  Cr14  1  0.31392192  0.31392192  0.75589601  1
  Cr  Cr15  1  0.68607808  0.68607808  0.75589601  1
  W  W0  1  0.00000000  0.00000000  0.00000000  1
  W  W1  1  0.50000000  0.50000000  0.50000000  1
  W  W2  1  0.39734187  0.60265813  0.00000000  1
  W  W3  1  0.60265813  0.39734187  0.00000000  1
  W  W4  1  0.89734187  0.89734187  0.50000000  1
  W  W5  1  0.10265813  0.10265813  0.50000000  1
  W  W6  1  0.13027950  0.53712446  0.00000000  1
  W  W7  1  0.86972050  0.46287554  0.00000000  1
  W  W8  1  0.96287554  0.63027950  0.50000000  1
  W  W9  1  0.03712446  0.36972050  0.50000000  1
  W  W10  1  0.36972050  0.03712446  0.50000000  1
  W  W11  1  0.63027950  0.96287554  0.50000000  1
  W  W12  1  0.53712446  0.13027950  0.00000000  1
  W  W13  1  0.46287554  0.86972050  0.00000000  1
