# generated using pymatgen
data_1436_AlFe
_symmetry_space_group_name_H-M   'P-6m2'
_cell_length_a   2.69774729
_cell_length_b   2.69772695
_cell_length_c   4.04680484
_cell_angle_alpha   89.99999958
_cell_angle_beta   90.00000085
_cell_angle_gamma   120.00033006
_chemical_formula_structural   AlFe
_chemical_formula_sum   'Al1 Fe1'
_cell_volume   25.50590298
loop_
 _symmetry_equiv_pos_site_id
 _symmetry_equiv_pos_as_xyz
  1  'x, y, z'
loop_
 _atom_type_symbol
  Al
  Fe
loop_
 _atom_site_type_symbol
 _atom_site_label
 _atom_site_symmetry_multiplicity
 _atom_site_fract_x
 _atom_site_fract_y
 _atom_site_fract_z
 _atom_site_occupancy
  Al  Al0  1  0.66666781  0.33333423  0.75000036  1
  Fe  Fe0  1  0.33333217  0.66666397  0.25000066  1
