# generated using pymatgen
data_1441_BaCu3
_symmetry_space_group_name_H-M   'I4/mmm'
_cell_length_a   4.96556237
_cell_length_b   4.96556237
_cell_length_c   4.96556237
_cell_angle_alpha   119.07756871
_cell_angle_beta   119.07756871
_cell_angle_gamma   91.60526401
_chemical_formula_structural   BaCu3
_chemical_formula_sum   'Ba1 Cu3'
_cell_volume   87.74436934
loop_
 _symmetry_equiv_pos_site_id
 _symmetry_equiv_pos_as_xyz
  1  'x, y, z'
loop_
 _atom_type_symbol
  Ba
  Cu
loop_
 _atom_site_type_symbol
 _atom_site_label
 _atom_site_symmetry_multiplicity
 _atom_site_fract_x
 _atom_site_fract_y
 _atom_site_fract_z
 _atom_site_occupancy
  Ba  Ba0  1  0.00000000  0.00000000  0.00000000  1
  Cu  Cu0  1  0.25000000  0.75000000  0.50000000  1
  Cu  Cu1  1  0.50000000  0.50000000  0.00000000  1
  Cu  Cu2  1  0.75000000  0.25000000  0.50000000  1
