# generated using pymatgen
data_1444_Au5Nb3
_symmetry_space_group_name_H-M   'Cmmm'
_cell_length_a   5.96809173
_cell_length_b   5.96809173
_cell_length_c   4.02865477
_cell_angle_alpha   90.00000000
_cell_angle_beta   90.00000000
_cell_angle_gamma   90.23762988
_chemical_formula_structural   Au5Nb3
_chemical_formula_sum   'Au5 Nb3'
_cell_volume   143.49187053
loop_
 _symmetry_equiv_pos_site_id
 _symmetry_equiv_pos_as_xyz
  1  'x, y, z'
loop_
 _atom_type_symbol
  Au
  Nb
loop_
 _atom_site_type_symbol
 _atom_site_label
 _atom_site_symmetry_multiplicity
 _atom_site_fract_x
 _atom_site_fract_y
 _atom_site_fract_z
 _atom_site_occupancy
  Au  Au0  1  0.00000000  0.00000000  0.00000000  1
  Au  Au1  1  0.00000000  0.50000000  0.00000000  1
  Au  Au2  1  0.50000000  1.00000000  0.00000000  1
  Au  Au3  1  0.75176277  0.24823723  0.50000000  1
  Au  Au4  1  0.24823723  0.75176277  0.50000000  1
  Nb  Nb0  1  0.50000000  0.50000000  0.00000000  1
  Nb  Nb1  1  0.26967813  0.26967813  0.50000000  1
  Nb  Nb2  1  0.73032187  0.73032187  0.50000000  1
