# generated using pymatgen
data_1446_GaNb
_symmetry_space_group_name_H-M   'R -3 m'
_cell_length_a   4.88298529
_cell_length_b   4.88298529
_cell_length_c   4.88298519
_cell_angle_alpha   35.21488771
_cell_angle_beta   35.21488771
_cell_angle_gamma   35.21488332
_chemical_formula_structural   GaNb
_chemical_formula_sum   'Ga1 Nb1'
_cell_volume   34.58008233
loop_
 _symmetry_equiv_pos_site_id
 _symmetry_equiv_pos_as_xyz
  1  'x, y, z'
loop_
 _atom_type_symbol
  Ga
  Nb
loop_
 _atom_site_type_symbol
 _atom_site_label
 _atom_site_symmetry_multiplicity
 _atom_site_fract_x
 _atom_site_fract_y
 _atom_site_fract_z
 _atom_site_occupancy
  Ga  Ga0  1  0.00000000  0.00000000  0.00000000  1
  Nb  Nb0  1  0.49999945  0.49999945  0.50000001  1
