# generated using pymatgen
data_1452_In3Br3
_symmetry_space_group_name_H-M   'Cm'
_cell_length_a   7.27422701
_cell_length_b   7.27422701
_cell_length_c   7.78614725
_cell_angle_alpha   75.81136480
_cell_angle_beta   75.81136480
_cell_angle_gamma   31.00822305
_chemical_formula_structural   In3Br3
_chemical_formula_sum   'Br3 In3'
_cell_volume   205.26444260
loop_
 _symmetry_equiv_pos_site_id
 _symmetry_equiv_pos_as_xyz
  1  'x, y, z'
loop_
 _atom_type_symbol
  Br
  In
loop_
 _atom_site_type_symbol
 _atom_site_label
 _atom_site_symmetry_multiplicity
 _atom_site_fract_x
 _atom_site_fract_y
 _atom_site_fract_z
 _atom_site_occupancy
  Br  Br0  1  0.64733938  0.64733938  0.64430180  1
  Br  Br1  1  0.35129372  0.35129372  0.24768900  1
  Br  Br2  1  0.37545456  0.37545456  0.77562147  1
  In  In0  1  0.00703061  0.00703061  0.98920991  1
  In  In1  1  0.04637900  0.04637900  0.46499896  1
  In  In2  1  0.73916941  0.73916941  0.04484553  1
