# generated using pymatgen
data_1459_CsW
_symmetry_space_group_name_H-M   'F-43m'
_cell_length_a   6.05568652
_cell_length_b   6.05568652
_cell_length_c   6.05568652
_cell_angle_alpha   60.00000000
_cell_angle_beta   60.00000000
_cell_angle_gamma   60.00000000
_chemical_formula_structural   CsW
_chemical_formula_sum   'Cs1 W1'
_cell_volume   157.02729777
loop_
 _symmetry_equiv_pos_site_id
 _symmetry_equiv_pos_as_xyz
  1  'x, y, z'
loop_
 _atom_type_symbol
  Cs
  W
loop_
 _atom_site_type_symbol
 _atom_site_label
 _atom_site_symmetry_multiplicity
 _atom_site_fract_x
 _atom_site_fract_y
 _atom_site_fract_z
 _atom_site_occupancy
  Cs  Cs0  1  0.00000000  0.00000000  0.00000000  1
  W  W0  1  0.25000016  0.25000016  0.25000016  1
