# generated using pymatgen
data_1460_Ge8I32
_symmetry_space_group_name_H-M   'Pa -3'
_cell_length_a   12.61976020
_cell_length_b   12.61976020
_cell_length_c   12.61976020
_cell_angle_alpha   90.00000000
_cell_angle_beta   90.00000000
_cell_angle_gamma   90.00000000
_chemical_formula_structural   Ge8I32
_chemical_formula_sum   'Ge8 I32'
_cell_volume   2009.80215537
loop_
 _symmetry_equiv_pos_site_id
 _symmetry_equiv_pos_as_xyz
  1  'x, y, z'
loop_
 _atom_type_symbol
  Ge
  I
loop_
 _atom_site_type_symbol
 _atom_site_label
 _atom_site_symmetry_multiplicity
 _atom_site_fract_x
 _atom_site_fract_y
 _atom_site_fract_z
 _atom_site_occupancy
  Ge  Ge0  1  0.13212144  0.13212144  0.13212144  1
  Ge  Ge1  1  0.36787879  0.63212166  0.13212144  1
  Ge  Ge2  1  0.63212166  0.13212144  0.36787879  1
  Ge  Ge3  1  0.86787820  0.63212166  0.36787879  1
  Ge  Ge4  1  0.13212144  0.36787879  0.63212166  1
  Ge  Ge5  1  0.36787879  0.86787820  0.63212166  1
  Ge  Ge6  1  0.63212166  0.36787879  0.86787820  1
  Ge  Ge7  1  0.86787820  0.86787820  0.86787820  1
  I  I0  1  0.24934055  0.02785415  0.00498073  1
  I  I1  1  0.25065967  0.52785437  0.00498073  1
  I  I2  1  0.00498073  0.24934055  0.02785415  1
  I  I3  1  0.49501950  0.74933997  0.02785415  1
  I  I4  1  0.52785437  0.00498073  0.25065967  1
  I  I5  1  0.97214549  0.50498095  0.25065967  1
  I  I6  1  0.74820558  0.24820536  0.25179487  1
  I  I7  1  0.75179509  0.74820558  0.25179487  1
  I  I8  1  0.24820536  0.24820536  0.24820536  1
  I  I9  1  0.25179487  0.74820558  0.24820536  1
  I  I10  1  0.02785415  0.00498073  0.24934055  1
  I  I11  1  0.47214527  0.50498095  0.24934055  1
  I  I12  1  0.50498095  0.24934055  0.47214527  1
  I  I13  1  0.99501972  0.74933997  0.47214527  1
  I  I14  1  0.74933997  0.02785415  0.49501950  1
  I  I15  1  0.75065989  0.52785437  0.49501950  1
  I  I16  1  0.24934055  0.47214527  0.50498095  1
  I  I17  1  0.25065967  0.97214549  0.50498095  1
  I  I18  1  0.00498073  0.25065967  0.52785437  1
  I  I19  1  0.49501950  0.75065989  0.52785437  1
  I  I20  1  0.52785437  0.49501950  0.75065989  1
  I  I21  1  0.97214549  0.99501972  0.75065989  1
  I  I22  1  0.74820558  0.25179487  0.75179509  1
  I  I23  1  0.75179509  0.75179509  0.75179509  1
  I  I24  1  0.24820536  0.25179487  0.74820558  1
  I  I25  1  0.25179487  0.75179509  0.74820558  1
  I  I26  1  0.02785415  0.49501950  0.74933997  1
  I  I27  1  0.47214527  0.99501972  0.74933997  1
  I  I28  1  0.50498095  0.25065967  0.97214549  1
  I  I29  1  0.99501972  0.75065989  0.97214549  1
  I  I30  1  0.74933997  0.47214527  0.99501972  1
  I  I31  1  0.75065989  0.97214549  0.99501972  1
