# generated using pymatgen
data_1461_Pd2Ge4
_symmetry_space_group_name_H-M   'Imma'
_cell_length_a   2.97624300
_cell_length_b   3.93511059
_cell_length_c   17.80991667
_cell_angle_alpha   90.00000000
_cell_angle_beta   90.00000000
_cell_angle_gamma   90.00000000
_chemical_formula_structural   Pd2Ge4
_chemical_formula_sum   'Ge8 Pd4'
_cell_volume   208.58698969
loop_
 _symmetry_equiv_pos_site_id
 _symmetry_equiv_pos_as_xyz
  1  'x, y, z'
loop_
 _atom_type_symbol
  Ge
  Pd
loop_
 _atom_site_type_symbol
 _atom_site_label
 _atom_site_symmetry_multiplicity
 _atom_site_fract_x
 _atom_site_fract_y
 _atom_site_fract_z
 _atom_site_occupancy
  Ge  Ge0  1  0.00000000  0.25000000  0.04690695  1
  Ge  Ge1  1  0.00000000  0.25000000  0.19053963  1
  Ge  Ge2  1  0.00000000  0.75000000  0.80946037  1
  Ge  Ge3  1  0.00000000  0.75000000  0.95309305  1
  Ge  Ge4  1  0.50000000  0.25000000  0.30946037  1
  Ge  Ge5  1  0.50000000  0.25000000  0.45309305  1
  Ge  Ge6  1  0.50000000  0.75000000  0.54690695  1
  Ge  Ge7  1  0.50000000  0.75000000  0.69053963  1
  Pd  Pd0  1  0.00000000  0.25000000  0.62961393  1
  Pd  Pd1  1  0.00000000  0.75000000  0.37038607  1
  Pd  Pd2  1  0.50000000  0.25000000  0.87038607  1
  Pd  Pd3  1  0.50000000  0.75000000  0.12961393  1
