# generated using pymatgen
data_1462_P4Br8
_symmetry_space_group_name_H-M   'Pa -3'
_cell_length_a   6.75270264
_cell_length_b   6.75270264
_cell_length_c   6.75270264
_cell_angle_alpha   90.00000000
_cell_angle_beta   90.00000000
_cell_angle_gamma   90.00000000
_chemical_formula_structural   P4Br8
_chemical_formula_sum   'Br8 P4'
_cell_volume   307.91644004
loop_
 _symmetry_equiv_pos_site_id
 _symmetry_equiv_pos_as_xyz
  1  'x, y, z'
loop_
 _atom_type_symbol
  Br
  P
loop_
 _atom_site_type_symbol
 _atom_site_label
 _atom_site_symmetry_multiplicity
 _atom_site_fract_x
 _atom_site_fract_y
 _atom_site_fract_z
 _atom_site_occupancy
  Br  Br0  1  0.65551090  0.65551090  0.34448910  1
  Br  Br1  1  0.34448910  0.34448910  0.65551090  1
  Br  Br2  1  0.15551090  0.84448910  0.65551090  1
  Br  Br3  1  0.84448910  0.15551090  0.34448910  1
  Br  Br4  1  0.34448910  0.15551090  0.15551090  1
  Br  Br5  1  0.65551090  0.84448910  0.84448910  1
  Br  Br6  1  0.84448910  0.34448910  0.84448910  1
  Br  Br7  1  0.15551090  0.65551090  0.15551090  1
  P  P0  1  0.00000000  0.00000000  0.00000000  1
  P  P1  1  0.50000000  0.50000000  0.00000000  1
  P  P2  1  0.50000000  0.00000000  0.50000000  1
  P  P3  1  0.00000000  0.50000000  0.50000000  1
