# generated using pymatgen
data_1463_Cr2Na
_symmetry_space_group_name_H-M   'Immm'
_cell_length_a   5.68387043
_cell_length_b   5.68387043
_cell_length_c   5.68387043
_cell_angle_alpha   156.56700415
_cell_angle_beta   138.98563823
_cell_angle_gamma   47.77290255
_chemical_formula_structural   Cr2Na
_chemical_formula_sum   'Cr2 Na1'
_cell_volume   47.77710688
loop_
 _symmetry_equiv_pos_site_id
 _symmetry_equiv_pos_as_xyz
  1  'x, y, z'
loop_
 _atom_type_symbol
  Cr
  Na
loop_
 _atom_site_type_symbol
 _atom_site_label
 _atom_site_symmetry_multiplicity
 _atom_site_fract_x
 _atom_site_fract_y
 _atom_site_fract_z
 _atom_site_occupancy
  Cr  Cr0  1  0.29833923  0.29833923  0.00000000  1
  Cr  Cr1  1  0.70166077  0.70166077  0.00000000  1
  Na  Na0  1  0.00000000  0.00000000  0.00000000  1
