# generated using pymatgen
data_1464_Ir2Mo
_symmetry_space_group_name_H-M   'Immm'
_cell_length_a   2.85290131
_cell_length_b   7.77028291
_cell_length_c   3.89684548
_cell_angle_alpha   90.00000000
_cell_angle_beta   90.00000000
_cell_angle_gamma   90.00000000
_chemical_formula_structural   Ir2Mo
_chemical_formula_sum   'Ir4 Mo2'
_cell_volume   86.38468722
loop_
 _symmetry_equiv_pos_site_id
 _symmetry_equiv_pos_as_xyz
  1  'x, y, z'
loop_
 _atom_type_symbol
  Ir
  Mo
loop_
 _atom_site_type_symbol
 _atom_site_label
 _atom_site_symmetry_multiplicity
 _atom_site_fract_x
 _atom_site_fract_y
 _atom_site_fract_z
 _atom_site_occupancy
  Ir  Ir0  1  0.01063537  0.32574679  0.00000000  1
  Ir  Ir1  1  0.48936463  0.82574679  0.50000000  1
  Ir  Ir2  1  0.51063537  0.17425321  0.50000000  1
  Ir  Ir3  1  0.98936463  0.67425321  0.00000000  1
  Mo  Mo0  1  0.00000000  0.00000000  0.00000000  1
  Mo  Mo1  1  0.50000000  0.50000000  0.50000000  1
