# generated using pymatgen
data_146_RbRh
_symmetry_space_group_name_H-M   'P-6m2'
_cell_length_a   3.08157900
_cell_length_b   3.08118238
_cell_length_c   5.58121100
_cell_angle_alpha   90.00000000
_cell_angle_beta   90.00000000
_cell_angle_gamma   120.00424748
_chemical_formula_structural   RbRh
_chemical_formula_sum   'Rb1 Rh1'
_cell_volume   45.89138821
loop_
 _symmetry_equiv_pos_site_id
 _symmetry_equiv_pos_as_xyz
  1  'x, y, z'
loop_
 _atom_type_symbol
  Rb
  Rh
loop_
 _atom_site_type_symbol
 _atom_site_label
 _atom_site_symmetry_multiplicity
 _atom_site_fract_x
 _atom_site_fract_y
 _atom_site_fract_z
 _atom_site_occupancy
  Rb  Rb0  1  0.66668321  0.33336602  0.75000031  1
  Rh  Rh0  1  0.33331730  0.66663461  0.24999951  1
