# generated using pymatgen
data_1470_Ir2Na2
_symmetry_space_group_name_H-M   'Imma'
_cell_length_a   6.12515349
_cell_length_b   6.12515349
_cell_length_c   6.12515349
_cell_angle_alpha   154.21948001
_cell_angle_beta   129.65879556
_cell_angle_gamma   57.40610409
_chemical_formula_structural   Ir2Na2
_chemical_formula_sum   'Ir2 Na2'
_cell_volume   76.49800640
loop_
 _symmetry_equiv_pos_site_id
 _symmetry_equiv_pos_as_xyz
  1  'x, y, z'
loop_
 _atom_type_symbol
  Ir
  Na
loop_
 _atom_site_type_symbol
 _atom_site_label
 _atom_site_symmetry_multiplicity
 _atom_site_fract_x
 _atom_site_fract_y
 _atom_site_fract_z
 _atom_site_occupancy
  Ir  Ir0  1  0.02765838  0.02765838  1.00000000  1
  Ir  Ir1  1  0.22234162  0.72234162  0.50000000  1
  Na  Na0  1  0.48250736  0.48250736  0.00000000  1
  Na  Na1  1  0.76749264  0.26749264  0.50000000  1
