# generated using pymatgen
data_1472_SnW4
_symmetry_space_group_name_H-M   'I4/mmm'
_cell_length_a   6.47395819
_cell_length_b   6.47395819
_cell_length_c   6.47395819
_cell_angle_alpha   142.25431860
_cell_angle_beta   142.25431860
_cell_angle_gamma   54.44589790
_chemical_formula_structural   SnW4
_chemical_formula_sum   'Sn1 W4'
_cell_volume   100.98350860
loop_
 _symmetry_equiv_pos_site_id
 _symmetry_equiv_pos_as_xyz
  1  'x, y, z'
loop_
 _atom_type_symbol
  Sn
  W
loop_
 _atom_site_type_symbol
 _atom_site_label
 _atom_site_symmetry_multiplicity
 _atom_site_fract_x
 _atom_site_fract_y
 _atom_site_fract_z
 _atom_site_occupancy
  Sn  Sn0  1  0.00000000  0.00000000  0.00000000  1
  W  W0  1  0.25000000  0.75000000  0.50000000  1
  W  W1  1  0.75000000  0.25000000  0.50000000  1
  W  W2  1  0.61733245  0.61733245  0.00000000  1
  W  W3  1  0.38266755  0.38266755  0.00000000  1
