# generated using pymatgen
data_1475_Ca2P2
_symmetry_space_group_name_H-M   'Cmcm'
_cell_length_a   5.89553667
_cell_length_b   5.89553667
_cell_length_c   4.97511484
_cell_angle_alpha   90.00000000
_cell_angle_beta   90.00000000
_cell_angle_gamma   148.86323996
_chemical_formula_structural   Ca2P2
_chemical_formula_sum   'Ca2 P2'
_cell_volume   89.41486290
loop_
 _symmetry_equiv_pos_site_id
 _symmetry_equiv_pos_as_xyz
  1  'x, y, z'
loop_
 _atom_type_symbol
  Ca
  P
loop_
 _atom_site_type_symbol
 _atom_site_label
 _atom_site_symmetry_multiplicity
 _atom_site_fract_x
 _atom_site_fract_y
 _atom_site_fract_z
 _atom_site_occupancy
  Ca  Ca0  1  0.88024046  0.11975954  0.75000000  1
  Ca  Ca1  1  0.11975954  0.88024046  0.25000000  1
  P  P0  1  0.62093631  0.37906369  0.75000000  1
  P  P1  1  0.37906369  0.62093631  0.25000000  1
