# generated using pymatgen
data_1478_Ta2Ge6
_symmetry_space_group_name_H-M   'I4/mmm'
_cell_length_a   10.83003735
_cell_length_b   10.83003735
_cell_length_c   10.83003735
_cell_angle_alpha   160.33175799
_cell_angle_beta   160.33175799
_cell_angle_gamma   27.95518956
_chemical_formula_structural   Ta2Ge6
_chemical_formula_sum   'Ge6 Ta2'
_cell_volume   143.83123589
loop_
 _symmetry_equiv_pos_site_id
 _symmetry_equiv_pos_as_xyz
  1  'x, y, z'
loop_
 _atom_type_symbol
  Ge
  Ta
loop_
 _atom_site_type_symbol
 _atom_site_label
 _atom_site_symmetry_multiplicity
 _atom_site_fract_x
 _atom_site_fract_y
 _atom_site_fract_z
 _atom_site_occupancy
  Ge  Ge0  1  0.50000000  0.00000000  0.50000000  1
  Ge  Ge1  1  0.00000000  0.50000000  0.50000000  1
  Ge  Ge2  1  0.25000000  0.75000000  0.50000000  1
  Ge  Ge3  1  0.75000000  0.25000000  0.50000000  1
  Ge  Ge4  1  0.88628902  0.88628902  0.00000000  1
  Ge  Ge5  1  0.11371098  0.11371098  0.00000000  1
  Ta  Ta0  1  0.65329765  0.65329765  0.00000000  1
  Ta  Ta1  1  0.34670235  0.34670235  0.00000000  1
