# generated using pymatgen
data_147_Cu2Ni26
_symmetry_space_group_name_H-M   'Fm -3 c'
_cell_length_a   7.84751125
_cell_length_b   7.84751125
_cell_length_c   7.84751125
_cell_angle_alpha   60.00000000
_cell_angle_beta   60.00000000
_cell_angle_gamma   60.00000000
_chemical_formula_structural   Cu2Ni26
_chemical_formula_sum   'Cu2 Ni26'
_cell_volume   341.72821887
loop_
 _symmetry_equiv_pos_site_id
 _symmetry_equiv_pos_as_xyz
  1  'x, y, z'
loop_
 _atom_type_symbol
  Cu
  Ni
loop_
 _atom_site_type_symbol
 _atom_site_label
 _atom_site_symmetry_multiplicity
 _atom_site_fract_x
 _atom_site_fract_y
 _atom_site_fract_z
 _atom_site_occupancy
  Cu  Cu0  1  0.25000000  0.25000000  0.25000000  1
  Cu  Cu1  1  0.75000000  0.75000000  0.75000000  1
  Ni  Ni0  1  0.29820370  0.70179630  0.06200825  1
  Ni  Ni1  1  0.06200825  0.93799175  0.29820370  1
  Ni  Ni2  1  0.93799175  0.06200825  0.70179630  1
  Ni  Ni3  1  0.70179630  0.29820370  0.93799175  1
  Ni  Ni4  1  0.93799175  0.70179630  0.29820370  1
  Ni  Ni5  1  0.70179630  0.93799175  0.06200825  1
  Ni  Ni6  1  0.29820370  0.06200825  0.93799175  1
  Ni  Ni7  1  0.06200825  0.29820370  0.70179630  1
  Ni  Ni8  1  0.06200825  0.70179630  0.93799175  1
  Ni  Ni9  1  0.29820370  0.93799175  0.70179630  1
  Ni  Ni10  1  0.70179630  0.06200825  0.29820370  1
  Ni  Ni11  1  0.93799175  0.29820370  0.06200825  1
  Ni  Ni12  1  0.20179630  0.56200825  0.43799175  1
  Ni  Ni13  1  0.43799175  0.79820370  0.20179630  1
  Ni  Ni14  1  0.56200825  0.20179630  0.79820370  1
  Ni  Ni15  1  0.79820370  0.43799175  0.56200825  1
  Ni  Ni16  1  0.56200825  0.43799175  0.20179630  1
  Ni  Ni17  1  0.79820370  0.20179630  0.43799175  1
  Ni  Ni18  1  0.20179630  0.79820370  0.56200825  1
  Ni  Ni19  1  0.43799175  0.56200825  0.79820370  1
  Ni  Ni20  1  0.43799175  0.20179630  0.56200825  1
  Ni  Ni21  1  0.20179630  0.43799175  0.79820370  1
  Ni  Ni22  1  0.79820370  0.56200825  0.20179630  1
  Ni  Ni23  1  0.56200825  0.79820370  0.43799175  1
  Ni  Ni24  1  0.00000000  0.00000000  0.00000000  1
  Ni  Ni25  1  0.50000000  0.50000000  0.50000000  1
