# generated using pymatgen
data_1481_Fe3V
_symmetry_space_group_name_H-M   'Imm2'
_cell_length_a   4.73955077
_cell_length_b   4.73955077
_cell_length_c   4.73955077
_cell_angle_alpha   149.33851141
_cell_angle_beta   125.60936517
_cell_angle_gamma   63.73962381
_chemical_formula_structural   Fe3V
_chemical_formula_sum   'Fe3 V1'
_cell_volume   43.70118834
loop_
 _symmetry_equiv_pos_site_id
 _symmetry_equiv_pos_as_xyz
  1  'x, y, z'
loop_
 _atom_type_symbol
  Fe
  V
loop_
 _atom_site_type_symbol
 _atom_site_label
 _atom_site_symmetry_multiplicity
 _atom_site_fract_x
 _atom_site_fract_y
 _atom_site_fract_z
 _atom_site_occupancy
  Fe  Fe0  1  0.75358188  0.75726913  0.99631274  1
  Fe  Fe1  1  0.23904361  0.24273087  0.99631274  1
  Fe  Fe2  1  0.17027027  0.50000000  0.67027027  1
  V  V0  1  0.67043424  0.00000000  0.67043424  1
