# generated using pymatgen
data_1488_IrTa
_symmetry_space_group_name_H-M   'R -3 m'
_cell_length_a   4.86586898
_cell_length_b   4.86586898
_cell_length_c   4.86586897
_cell_angle_alpha   34.19341796
_cell_angle_beta   34.19341796
_cell_angle_gamma   34.19342883
_chemical_formula_structural   IrTa
_chemical_formula_sum   'Ir1 Ta1'
_cell_volume   32.44420361
loop_
 _symmetry_equiv_pos_site_id
 _symmetry_equiv_pos_as_xyz
  1  'x, y, z'
loop_
 _atom_type_symbol
  Ir
  Ta
loop_
 _atom_site_type_symbol
 _atom_site_label
 _atom_site_symmetry_multiplicity
 _atom_site_fract_x
 _atom_site_fract_y
 _atom_site_fract_z
 _atom_site_occupancy
  Ir  Ir0  1  0.00000000  0.00000000  0.00000000  1
  Ta  Ta0  1  0.49999999  0.49999999  0.49999999  1
