# generated using pymatgen
data_1496_Cu12Ni17
_symmetry_space_group_name_H-M   'I-43m'
_cell_length_a   7.53491463
_cell_length_b   7.53491463
_cell_length_c   7.53491463
_cell_angle_alpha   109.47122063
_cell_angle_beta   109.47122063
_cell_angle_gamma   109.47122063
_chemical_formula_structural   Cu12Ni17
_chemical_formula_sum   'Cu12 Ni17'
_cell_volume   329.31621692
loop_
 _symmetry_equiv_pos_site_id
 _symmetry_equiv_pos_as_xyz
  1  'x, y, z'
loop_
 _atom_type_symbol
  Cu
  Ni
loop_
 _atom_site_type_symbol
 _atom_site_label
 _atom_site_symmetry_multiplicity
 _atom_site_fract_x
 _atom_site_fract_y
 _atom_site_fract_z
 _atom_site_occupancy
  Cu  Cu0  1  0.19086302  0.00000000  0.37651669  1
  Cu  Cu1  1  0.37651669  0.00000000  0.19086302  1
  Cu  Cu2  1  0.62348331  0.81434632  0.62348331  1
  Cu  Cu3  1  0.80913698  0.18565368  0.80913698  1
  Cu  Cu4  1  1.00000000  0.19086302  0.37651669  1
  Cu  Cu5  1  1.00000000  0.37651669  0.19086302  1
  Cu  Cu6  1  0.18565368  0.80913698  0.80913698  1
  Cu  Cu7  1  0.81434632  0.62348331  0.62348331  1
  Cu  Cu8  1  0.80913698  0.80913698  0.18565368  1
  Cu  Cu9  1  0.62348331  0.62348331  0.81434632  1
  Cu  Cu10  1  0.19086302  0.37651669  0.00000000  1
  Cu  Cu11  1  0.37651669  0.19086302  0.00000000  1
  Ni  Ni0  1  0.68464619  0.00000000  0.40683458  1
  Ni  Ni1  1  0.40683458  0.00000000  0.68464619  1
  Ni  Ni2  1  0.59316542  0.27781160  0.59316542  1
  Ni  Ni3  1  0.31535381  0.72218840  0.31535381  1
  Ni  Ni4  1  0.00000000  0.68464619  0.40683458  1
  Ni  Ni5  1  0.00000000  0.40683458  0.68464619  1
  Ni  Ni6  1  0.72218840  0.31535381  0.31535381  1
  Ni  Ni7  1  0.27781160  0.59316542  0.59316542  1
  Ni  Ni8  1  0.31535381  0.31535381  0.72218840  1
  Ni  Ni9  1  0.59316542  0.59316542  0.27781160  1
  Ni  Ni10  1  0.68464619  0.40683458  0.00000000  1
  Ni  Ni11  1  0.40683458  0.68464619  0.00000000  1
  Ni  Ni12  1  1.00000000  0.00000000  0.64080272  1
  Ni  Ni13  1  0.64080272  0.00000000  0.00000000  1
  Ni  Ni14  1  0.35919728  0.35919728  0.35919728  1
  Ni  Ni15  1  1.00000000  0.64080272  0.00000000  1
  Ni  Ni16  1  0.00000000  0.00000000  0.00000000  1
