# generated using pymatgen
data_1498_CuTh
_symmetry_space_group_name_H-M   'P-6m2'
_cell_length_a   3.40670274
_cell_length_b   3.40673970
_cell_length_c   4.56317617
_cell_angle_alpha   90.00000000
_cell_angle_beta   90.00000000
_cell_angle_gamma   119.99965290
_chemical_formula_structural   CuTh
_chemical_formula_sum   'Cu1 Th1'
_cell_volume   45.86406850
loop_
 _symmetry_equiv_pos_site_id
 _symmetry_equiv_pos_as_xyz
  1  'x, y, z'
loop_
 _atom_type_symbol
  Cu
  Th
loop_
 _atom_site_type_symbol
 _atom_site_label
 _atom_site_symmetry_multiplicity
 _atom_site_fract_x
 _atom_site_fract_y
 _atom_site_fract_z
 _atom_site_occupancy
  Cu  Cu0  1  0.66666805  0.33333510  0.75000000  1
  Th  Th0  1  0.33333195  0.66666490  0.25000000  1
