# generated using pymatgen
data_1499_Fe6Sb2
_symmetry_space_group_name_H-M   'Cmcm'
_cell_length_a   5.31965362
_cell_length_b   5.31965362
_cell_length_c   4.16682553
_cell_angle_alpha   90.00000000
_cell_angle_beta   90.00000000
_cell_angle_gamma   120.53742568
_chemical_formula_structural   Fe6Sb2
_chemical_formula_sum   'Fe6 Sb2'
_cell_volume   101.56058388
loop_
 _symmetry_equiv_pos_site_id
 _symmetry_equiv_pos_as_xyz
  1  'x, y, z'
loop_
 _atom_type_symbol
  Fe
  Sb
loop_
 _atom_site_type_symbol
 _atom_site_label
 _atom_site_symmetry_multiplicity
 _atom_site_fract_x
 _atom_site_fract_y
 _atom_site_fract_z
 _atom_site_occupancy
  Fe  Fe0  1  0.16833767  0.83166233  0.75000000  1
  Fe  Fe1  1  0.83166233  0.16833767  0.25000000  1
  Fe  Fe2  1  0.69367083  0.84427687  0.75000000  1
  Fe  Fe3  1  0.30632917  0.15572313  0.25000000  1
  Fe  Fe4  1  0.84427687  0.69367083  0.25000000  1
  Fe  Fe5  1  0.15572313  0.30632917  0.75000000  1
  Sb  Sb0  1  0.66430833  0.33569167  0.75000000  1
  Sb  Sb1  1  0.33569167  0.66430833  0.25000000  1
