# generated using pymatgen
data_14_Pd2Ta2
_symmetry_space_group_name_H-M   'P4/nmm'
_cell_length_a   3.30229601
_cell_length_b   3.32269573
_cell_length_c   6.10420897
_cell_angle_alpha   90.00000000
_cell_angle_beta   90.00000000
_cell_angle_gamma   90.00000000
_chemical_formula_structural   Pd2Ta2
_chemical_formula_sum   'Pd2 Ta2'
_cell_volume   66.97858462
loop_
 _symmetry_equiv_pos_site_id
 _symmetry_equiv_pos_as_xyz
  1  'x, y, z'
loop_
 _atom_type_symbol
  Pd
  Ta
loop_
 _atom_site_type_symbol
 _atom_site_label
 _atom_site_symmetry_multiplicity
 _atom_site_fract_x
 _atom_site_fract_y
 _atom_site_fract_z
 _atom_site_occupancy
  Pd  Pd0  1  0.00000000  0.00000000  0.00710307  1
  Pd  Pd1  1  0.50000000  0.50000000  0.74289693  1
  Ta  Ta0  1  1.00000000  0.00000000  0.51787362  1
  Ta  Ta1  1  0.50000000  0.50000000  0.23212638  1
