# generated using pymatgen
data_1505_Ce4Cu4
_symmetry_space_group_name_H-M   'Pnma'
_cell_length_a   7.34078600
_cell_length_b   4.46975900
_cell_length_c   5.91155700
_cell_angle_alpha   90.00000000
_cell_angle_beta   90.00000000
_cell_angle_gamma   90.00000000
_chemical_formula_structural   Ce4Cu4
_chemical_formula_sum   'Ce4 Cu4'
_cell_volume   193.96731433
loop_
 _symmetry_equiv_pos_site_id
 _symmetry_equiv_pos_as_xyz
  1  'x, y, z'
loop_
 _atom_type_symbol
  Ce
  Cu
loop_
 _atom_site_type_symbol
 _atom_site_label
 _atom_site_symmetry_multiplicity
 _atom_site_fract_x
 _atom_site_fract_y
 _atom_site_fract_z
 _atom_site_occupancy
  Ce  Ce0  1  0.17737201  0.25000005  0.13415756  1
  Ce  Ce1  1  0.67737159  0.25000005  0.36584273  1
  Ce  Ce2  1  0.32262893  0.75000014  0.63415785  1
  Ce  Ce3  1  0.82262852  0.75000014  0.86584133  1
  Cu  Cu0  1  0.46502104  0.75000014  0.11729905  1
  Cu  Cu1  1  0.96502062  0.75000014  0.38270123  1
  Cu  Cu2  1  0.03497990  0.25000005  0.61729765  1
  Cu  Cu3  1  0.53497949  0.25000005  0.88270152  1
