# generated using pymatgen
data_1507_Ge2As4
_symmetry_space_group_name_H-M   'Pnnm'
_cell_length_a   3.84967040
_cell_length_b   5.18828989
_cell_length_c   6.65013652
_cell_angle_alpha   90.00000000
_cell_angle_beta   90.00000000
_cell_angle_gamma   90.00000000
_chemical_formula_structural   Ge2As4
_chemical_formula_sum   'As4 Ge2'
_cell_volume   132.82454675
loop_
 _symmetry_equiv_pos_site_id
 _symmetry_equiv_pos_as_xyz
  1  'x, y, z'
loop_
 _atom_type_symbol
  As
  Ge
loop_
 _atom_site_type_symbol
 _atom_site_label
 _atom_site_symmetry_multiplicity
 _atom_site_fract_x
 _atom_site_fract_y
 _atom_site_fract_z
 _atom_site_occupancy
  As  As0  1  0.00000000  0.17977818  0.61474091  1
  As  As1  1  0.00000000  0.82022182  0.38525909  1
  As  As2  1  0.50000000  0.67977818  0.88525909  1
  As  As3  1  0.50000000  0.32022182  0.11474091  1
  Ge  Ge0  1  0.00000000  0.00000000  0.00000000  1
  Ge  Ge1  1  0.50000000  0.50000000  0.50000000  1
