# generated using pymatgen
data_1509_Fe4Na8
_symmetry_space_group_name_H-M   'Pa -3'
_cell_length_a   7.27834941
_cell_length_b   7.27834941
_cell_length_c   7.27834941
_cell_angle_alpha   90.00000000
_cell_angle_beta   90.00000000
_cell_angle_gamma   90.00000000
_chemical_formula_structural   Fe4Na8
_chemical_formula_sum   'Fe4 Na8'
_cell_volume   385.56597561
loop_
 _symmetry_equiv_pos_site_id
 _symmetry_equiv_pos_as_xyz
  1  'x, y, z'
loop_
 _atom_type_symbol
  Fe
  Na
loop_
 _atom_site_type_symbol
 _atom_site_label
 _atom_site_symmetry_multiplicity
 _atom_site_fract_x
 _atom_site_fract_y
 _atom_site_fract_z
 _atom_site_occupancy
  Fe  Fe0  1  0.00000000  0.00000000  0.00000000  1
  Fe  Fe1  1  0.50000000  0.50000000  0.00000000  1
  Fe  Fe2  1  0.50000000  0.00000000  0.50000000  1
  Fe  Fe3  1  0.00000000  0.50000000  0.50000000  1
  Na  Na0  1  0.33983742  0.33983742  0.33983742  1
  Na  Na1  1  0.66016258  0.66016258  0.66016258  1
  Na  Na2  1  0.83983742  0.16016258  0.66016258  1
  Na  Na3  1  0.16016258  0.83983742  0.33983742  1
  Na  Na4  1  0.66016258  0.83983742  0.16016258  1
  Na  Na5  1  0.33983742  0.16016258  0.83983742  1
  Na  Na6  1  0.16016258  0.66016258  0.83983742  1
  Na  Na7  1  0.83983742  0.33983742  0.16016258  1
