# generated using pymatgen
data_1510_CrNb4
_symmetry_space_group_name_H-M   'I4/m'
_cell_length_a   3.21863527
_cell_length_b   5.35500873
_cell_length_c   5.35500873
_cell_angle_alpha   95.18176837
_cell_angle_beta   107.48917930
_cell_angle_gamma   72.51082070
_chemical_formula_structural   CrNb4
_chemical_formula_sum   'Cr1 Nb4'
_cell_volume   83.96201246
loop_
 _symmetry_equiv_pos_site_id
 _symmetry_equiv_pos_as_xyz
  1  'x, y, z'
loop_
 _atom_type_symbol
  Cr
  Nb
loop_
 _atom_site_type_symbol
 _atom_site_label
 _atom_site_symmetry_multiplicity
 _atom_site_fract_x
 _atom_site_fract_y
 _atom_site_fract_z
 _atom_site_occupancy
  Cr  Cr0  1  0.00000000  0.00000000  0.00000000  1
  Nb  Nb0  1  0.78992413  0.80440320  0.38425145  1
  Nb  Nb1  1  0.21007587  0.19559680  0.61574855  1
  Nb  Nb2  1  0.59432733  0.61574855  0.80440320  1
  Nb  Nb3  1  0.40567267  0.38425145  0.19559680  1
