# generated using pymatgen
data_1516_Ge2P4
_symmetry_space_group_name_H-M   'Imma'
_cell_length_a   3.25350521
_cell_length_b   10.06538746
_cell_length_c   3.24764548
_cell_angle_alpha   80.71604863
_cell_angle_beta   90.00000000
_cell_angle_gamma   99.30085095
_chemical_formula_structural   Ge2P4
_chemical_formula_sum   'Ge2 P4'
_cell_volume   103.54308473
loop_
 _symmetry_equiv_pos_site_id
 _symmetry_equiv_pos_as_xyz
  1  'x, y, z'
loop_
 _atom_type_symbol
  Ge
  P
loop_
 _atom_site_type_symbol
 _atom_site_label
 _atom_site_symmetry_multiplicity
 _atom_site_fract_x
 _atom_site_fract_y
 _atom_site_fract_z
 _atom_site_occupancy
  Ge  Ge0  1  0.87645838  0.25291677  0.37354162  1
  Ge  Ge1  1  0.12354162  0.74708323  0.62645838  1
  P  P0  1  0.28887433  0.07774866  0.96112567  1
  P  P1  1  0.71112567  0.92225134  0.03887433  1
  P  P2  1  0.46056916  0.42113832  0.78943084  1
  P  P3  1  0.53943084  0.57886168  0.21056916  1
