# generated using pymatgen
data_1517_Na4Pt4
_symmetry_space_group_name_H-M   'P2_13'
_cell_length_a   5.29053688
_cell_length_b   5.29053688
_cell_length_c   5.29053688
_cell_angle_alpha   90.00000000
_cell_angle_beta   90.00000000
_cell_angle_gamma   90.00000000
_chemical_formula_structural   Na4Pt4
_chemical_formula_sum   'Na4 Pt4'
_cell_volume   148.08096589
loop_
 _symmetry_equiv_pos_site_id
 _symmetry_equiv_pos_as_xyz
  1  'x, y, z'
loop_
 _atom_type_symbol
  Na
  Pt
loop_
 _atom_site_type_symbol
 _atom_site_label
 _atom_site_symmetry_multiplicity
 _atom_site_fract_x
 _atom_site_fract_y
 _atom_site_fract_z
 _atom_site_occupancy
  Na  Na0  1  0.59635707  0.59635707  0.40364293  1
  Na  Na1  1  0.90364293  0.40364293  0.90364293  1
  Na  Na2  1  0.40364293  0.09635707  0.09635707  1
  Na  Na3  1  0.09635707  0.90364293  0.59635707  1
  Pt  Pt0  1  0.89339937  0.89339937  0.10660063  1
  Pt  Pt1  1  0.60660063  0.10660063  0.60660063  1
  Pt  Pt2  1  0.10660063  0.39339937  0.39339937  1
  Pt  Pt3  1  0.39339937  0.60660063  0.89339937  1
