# generated using pymatgen
data_1520_NpYb
_symmetry_space_group_name_H-M   'R -3 m'
_cell_length_a   6.29835352
_cell_length_b   6.29835352
_cell_length_c   6.29835312
_cell_angle_alpha   30.28135492
_cell_angle_beta   30.28135492
_cell_angle_gamma   30.28135631
_chemical_formula_structural   NpYb
_chemical_formula_sum   'Np1 Yb1'
_cell_volume   56.29578329
loop_
 _symmetry_equiv_pos_site_id
 _symmetry_equiv_pos_as_xyz
  1  'x, y, z'
loop_
 _atom_type_symbol
  Np
  Yb
loop_
 _atom_site_type_symbol
 _atom_site_label
 _atom_site_symmetry_multiplicity
 _atom_site_fract_x
 _atom_site_fract_y
 _atom_site_fract_z
 _atom_site_occupancy
  Np  Np0  1  0.00000000  0.00000000  0.00000000  1
  Yb  Yb0  1  0.50000000  0.50000000  0.50000000  1
