# generated using pymatgen
data_1524_KAs8
_symmetry_space_group_name_H-M   'I4/mmm'
_cell_length_a   7.09559044
_cell_length_b   7.09559044
_cell_length_c   7.09559044
_cell_angle_alpha   97.00696823
_cell_angle_beta   97.00696823
_cell_angle_gamma   139.11456556
_chemical_formula_structural   KAs8
_chemical_formula_sum   'As8 K1'
_cell_volume   219.10750958
loop_
 _symmetry_equiv_pos_site_id
 _symmetry_equiv_pos_as_xyz
  1  'x, y, z'
loop_
 _atom_type_symbol
  As
  K
loop_
 _atom_site_type_symbol
 _atom_site_label
 _atom_site_symmetry_multiplicity
 _atom_site_fract_x
 _atom_site_fract_y
 _atom_site_fract_z
 _atom_site_occupancy
  As  As0  1  0.28409143  0.71590857  0.00000000  1
  As  As1  1  0.71590857  0.28409143  0.00000000  1
  As  As2  1  0.00000000  0.36788639  0.36788639  1
  As  As3  1  0.71590857  0.71590857  0.43181714  1
  As  As4  1  0.36788639  1.00000000  0.36788639  1
  As  As5  1  0.28409143  0.28409143  0.56818286  1
  As  As6  1  0.00000000  0.63211361  0.63211361  1
  As  As7  1  0.63211361  1.00000000  0.63211361  1
  K  K0  1  0.00000000  0.00000000  0.00000000  1
