# generated using pymatgen
data_1530_NiTa5
_symmetry_space_group_name_H-M   'F-43m'
_cell_length_a   5.39339089
_cell_length_b   5.39339089
_cell_length_c   5.39339089
_cell_angle_alpha   60.00000000
_cell_angle_beta   60.00000000
_cell_angle_gamma   60.00000000
_chemical_formula_structural   NiTa5
_chemical_formula_sum   'Ni1 Ta5'
_cell_volume   110.93553783
loop_
 _symmetry_equiv_pos_site_id
 _symmetry_equiv_pos_as_xyz
  1  'x, y, z'
loop_
 _atom_type_symbol
  Ni
  Ta
loop_
 _atom_site_type_symbol
 _atom_site_label
 _atom_site_symmetry_multiplicity
 _atom_site_fract_x
 _atom_site_fract_y
 _atom_site_fract_z
 _atom_site_occupancy
  Ni  Ni0  1  0.00000000  0.00000000  0.00000000  1
  Ta  Ta0  1  0.12914999  0.62361667  0.62361667  1
  Ta  Ta1  1  0.25000000  0.25000000  0.25000000  1
  Ta  Ta2  1  0.62361667  0.12914999  0.62361667  1
  Ta  Ta3  1  0.62361667  0.62361667  0.12914999  1
  Ta  Ta4  1  0.62361667  0.62361667  0.62361667  1
