# generated using pymatgen
data_1532_Nb10P6
_symmetry_space_group_name_H-M   'I4/mcm'
_cell_length_a   7.36789142
_cell_length_b   7.36787287
_cell_length_c   7.36794780
_cell_angle_alpha   97.00339867
_cell_angle_beta   97.00352640
_cell_angle_gamma   139.12500827
_chemical_formula_structural   Nb10P6
_chemical_formula_sum   'Nb10 P6'
_cell_volume   245.27166006
loop_
 _symmetry_equiv_pos_site_id
 _symmetry_equiv_pos_as_xyz
  1  'x, y, z'
loop_
 _atom_type_symbol
  Nb
  P
loop_
 _atom_site_type_symbol
 _atom_site_label
 _atom_site_symmetry_multiplicity
 _atom_site_fract_x
 _atom_site_fract_y
 _atom_site_fract_z
 _atom_site_occupancy
  Nb  Nb0  1  0.24942357  0.74973988  0.50000000  1
  Nb  Nb1  1  0.74942951  0.24974701  0.50000000  1
  Nb  Nb2  1  0.78239289  0.07737937  0.85957617  1
  Nb  Nb3  1  0.21749112  0.92313805  0.14043399  1
  Nb  Nb4  1  0.71739685  0.57739355  0.29469974  1
  Nb  Nb5  1  0.28230208  0.42315237  0.70536052  1
  Nb  Nb6  1  0.57705713  0.28270407  0.85956601  1
  Nb  Nb7  1  0.42281672  0.71780319  0.14042383  1
  Nb  Nb8  1  0.07694155  0.21779184  0.29463948  1
  Nb  Nb9  1  0.92269711  0.78269381  0.70530026  1
  P  P0  1  0.74984433  0.75002968  0.00000057  1
  P  P1  1  0.24984376  0.25002911  0.99999943  1
  P  P2  1  0.33569137  0.16421829  0.50000000  1
  P  P3  1  0.66340068  0.83650178  0.50000000  1
  P  P4  1  0.16215610  0.66269276  0.82770751  1
  P  P5  1  0.83444859  0.33498524  0.17229249  1
