# generated using pymatgen
data_1534_Cu8Sn
_symmetry_space_group_name_H-M   'I4/mmm'
_cell_length_a   5.88465031
_cell_length_b   5.88465031
_cell_length_c   5.88465031
_cell_angle_alpha   95.90069333
_cell_angle_beta   95.90069333
_cell_angle_gamma   142.59775798
_chemical_formula_structural   Cu8Sn
_chemical_formula_sum   'Cu8 Sn1'
_cell_volume   117.24254710
loop_
 _symmetry_equiv_pos_site_id
 _symmetry_equiv_pos_as_xyz
  1  'x, y, z'
loop_
 _atom_type_symbol
  Cu
  Sn
loop_
 _atom_site_type_symbol
 _atom_site_label
 _atom_site_symmetry_multiplicity
 _atom_site_fract_x
 _atom_site_fract_y
 _atom_site_fract_z
 _atom_site_occupancy
  Cu  Cu0  1  0.32593993  0.67406007  0.00000000  1
  Cu  Cu1  1  0.67406007  0.32593993  0.00000000  1
  Cu  Cu2  1  1.00000000  0.34111363  0.34111363  1
  Cu  Cu3  1  0.67406007  0.67406007  0.34812014  1
  Cu  Cu4  1  0.34111363  0.00000000  0.34111363  1
  Cu  Cu5  1  0.32593993  0.32593993  0.65187986  1
  Cu  Cu6  1  1.00000000  0.65888637  0.65888637  1
  Cu  Cu7  1  0.65888637  1.00000000  0.65888637  1
  Sn  Sn0  1  0.00000000  0.00000000  0.00000000  1
