# generated using pymatgen
data_1536_Ta5V
_symmetry_space_group_name_H-M   'Cmmm'
_cell_length_a   3.27707976
_cell_length_b   7.12262798
_cell_length_c   4.64844259
_cell_angle_alpha   90.00000000
_cell_angle_beta   90.00000000
_cell_angle_gamma   76.70015553
_chemical_formula_structural   Ta5V
_chemical_formula_sum   'Ta5 V1'
_cell_volume   105.59119275
loop_
 _symmetry_equiv_pos_site_id
 _symmetry_equiv_pos_as_xyz
  1  'x, y, z'
loop_
 _atom_type_symbol
  Ta
  V
loop_
 _atom_site_type_symbol
 _atom_site_label
 _atom_site_symmetry_multiplicity
 _atom_site_fract_x
 _atom_site_fract_y
 _atom_site_fract_z
 _atom_site_occupancy
  Ta  Ta0  1  0.02653885  0.94692229  0.00000000  1
  Ta  Ta1  1  0.69520515  0.60958971  0.00000000  1
  Ta  Ta2  1  0.36087197  0.27825607  0.00000000  1
  Ta  Ta3  1  0.52217423  0.95565153  0.50000000  1
  Ta  Ta4  1  0.20038738  0.59922523  0.50000000  1
  V  V0  1  0.86148908  0.27702184  0.50000000  1
