# generated using pymatgen
data_1545_Ca4In
_symmetry_space_group_name_H-M   'I4/m'
_cell_length_a   6.73098493
_cell_length_b   6.73098493
_cell_length_c   6.73098493
_cell_angle_alpha   99.35601453
_cell_angle_beta   99.35601453
_cell_angle_gamma   132.44350740
_chemical_formula_structural   Ca4In
_chemical_formula_sum   'Ca4 In1'
_cell_volume   205.93651887
loop_
 _symmetry_equiv_pos_site_id
 _symmetry_equiv_pos_as_xyz
  1  'x, y, z'
loop_
 _atom_type_symbol
  Ca
  In
loop_
 _atom_site_type_symbol
 _atom_site_label
 _atom_site_symmetry_multiplicity
 _atom_site_fract_x
 _atom_site_fract_y
 _atom_site_fract_z
 _atom_site_occupancy
  Ca  Ca0  1  0.80001797  0.40000907  0.20002704  1
  Ca  Ca1  1  0.40000907  0.19998203  0.59999110  1
  Ca  Ca2  1  0.19998203  0.59999093  0.79997296  1
  Ca  Ca3  1  0.59999093  0.80001797  0.40000890  1
  In  In0  1  0.00000000  0.00000000  0.00000000  1
