# generated using pymatgen
data_1546_Mo2Pb4
_symmetry_space_group_name_H-M   'Cmcm'
_cell_length_a   9.17430929
_cell_length_b   9.17430929
_cell_length_c   5.09236475
_cell_angle_alpha   90.00000000
_cell_angle_beta   90.00000000
_cell_angle_gamma   159.56965862
_chemical_formula_structural   Mo2Pb4
_chemical_formula_sum   'Mo2 Pb4'
_cell_volume   149.61554608
loop_
 _symmetry_equiv_pos_site_id
 _symmetry_equiv_pos_as_xyz
  1  'x, y, z'
loop_
 _atom_type_symbol
  Mo
  Pb
loop_
 _atom_site_type_symbol
 _atom_site_label
 _atom_site_symmetry_multiplicity
 _atom_site_fract_x
 _atom_site_fract_y
 _atom_site_fract_z
 _atom_site_occupancy
  Mo  Mo0  1  0.00034014  0.99965986  0.00000000  1
  Mo  Mo1  1  0.44410430  0.55589570  0.50000000  1
  Pb  Pb0  1  0.36818184  0.63181816  0.00000000  1
  Pb  Pb1  1  0.64690108  0.35309892  0.00000000  1
  Pb  Pb2  1  0.79754336  0.20245664  0.50000000  1
  Pb  Pb3  1  0.07626261  0.92373739  0.50000000  1
