# generated using pymatgen
data_1547_GaAs2
_symmetry_space_group_name_H-M   'I4/mmm'
_cell_length_a   5.93262738
_cell_length_b   5.93262738
_cell_length_c   5.93262738
_cell_angle_alpha   146.53063700
_cell_angle_beta   146.53063700
_cell_angle_gamma   48.05925706
_chemical_formula_structural   GaAs2
_chemical_formula_sum   'As2 Ga1'
_cell_volume   63.24643398
loop_
 _symmetry_equiv_pos_site_id
 _symmetry_equiv_pos_as_xyz
  1  'x, y, z'
loop_
 _atom_type_symbol
  As
  Ga
loop_
 _atom_site_type_symbol
 _atom_site_label
 _atom_site_symmetry_multiplicity
 _atom_site_fract_x
 _atom_site_fract_y
 _atom_site_fract_z
 _atom_site_occupancy
  As  As0  1  0.02847615  0.02847615  0.00000000  1
  As  As1  1  0.63819052  0.63819052  0.00000000  1
  Ga  Ga0  1  0.33333333  0.33333333  0.00000000  1
