# generated using pymatgen
data_1550_Ag4Al6
_symmetry_space_group_name_H-M   'P1'
_cell_length_a   5.03205913
_cell_length_b   5.79569817
_cell_length_c   6.44441705
_cell_angle_alpha   75.32339804
_cell_angle_beta   74.03523676
_cell_angle_gamma   72.54055401
_chemical_formula_structural   Ag4Al6
_chemical_formula_sum   'Ag4 Al6'
_cell_volume   169.35616529
loop_
 _symmetry_equiv_pos_site_id
 _symmetry_equiv_pos_as_xyz
  1  'x, y, z'
loop_
 _atom_type_symbol
  Ag
  Al
loop_
 _atom_site_type_symbol
 _atom_site_label
 _atom_site_symmetry_multiplicity
 _atom_site_fract_x
 _atom_site_fract_y
 _atom_site_fract_z
 _atom_site_occupancy
  Ag  Ag0  1  0.01525216  0.99568972  0.98628787  1
  Ag  Ag1  1  0.40768501  0.09431723  0.20092959  1
  Ag  Ag2  1  0.78866160  0.20469105  0.42067924  1
  Ag  Ag3  1  0.99769173  0.50308821  0.99270411  1
  Al  Al0  1  0.19956173  0.30249020  0.59698563  1
  Al  Al1  1  0.60043714  0.40363753  0.80575283  1
  Al  Al2  1  0.39485617  0.59614529  0.20208193  1
  Al  Al3  1  0.79465267  0.70713625  0.39787258  1
  Al  Al4  1  0.20095340  0.79604630  0.59376032  1
  Al  Al5  1  0.60024840  0.89675821  0.80294590  1
