# generated using pymatgen
data_1552_Pd4Sn4
_symmetry_space_group_name_H-M   'Pnma'
_cell_length_a   3.27463619
_cell_length_b   7.36146916
_cell_length_c   6.63097311
_cell_angle_alpha   90.00000000
_cell_angle_beta   90.00000000
_cell_angle_gamma   90.00000000
_chemical_formula_structural   Pd4Sn4
_chemical_formula_sum   'Pd4 Sn4'
_cell_volume   159.84712185
loop_
 _symmetry_equiv_pos_site_id
 _symmetry_equiv_pos_as_xyz
  1  'x, y, z'
loop_
 _atom_type_symbol
  Pd
  Sn
loop_
 _atom_site_type_symbol
 _atom_site_label
 _atom_site_symmetry_multiplicity
 _atom_site_fract_x
 _atom_site_fract_y
 _atom_site_fract_z
 _atom_site_occupancy
  Pd  Pd0  1  0.75000000  0.04491878  0.18032039  1
  Pd  Pd1  1  0.25000000  0.54491878  0.31967961  1
  Pd  Pd2  1  0.25000000  0.95508122  0.81967961  1
  Pd  Pd3  1  0.75000000  0.45508122  0.68032039  1
  Sn  Sn0  1  0.75000000  0.80564674  0.51917954  1
  Sn  Sn1  1  0.25000000  0.30564674  0.98082046  1
  Sn  Sn2  1  0.25000000  0.19435326  0.48082046  1
  Sn  Sn3  1  0.75000000  0.69435326  0.01917954  1
