# generated using pymatgen
data_1554_Ba5P
_symmetry_space_group_name_H-M   'P4/mmm'
_cell_length_a   4.23075367
_cell_length_b   4.23075367
_cell_length_c   14.46472350
_cell_angle_alpha   90.00000000
_cell_angle_beta   90.00000000
_cell_angle_gamma   90.00000000
_chemical_formula_structural   Ba5P
_chemical_formula_sum   'Ba5 P1'
_cell_volume   258.90808710
loop_
 _symmetry_equiv_pos_site_id
 _symmetry_equiv_pos_as_xyz
  1  'x, y, z'
loop_
 _atom_type_symbol
  Ba
  P
loop_
 _atom_site_type_symbol
 _atom_site_label
 _atom_site_symmetry_multiplicity
 _atom_site_fract_x
 _atom_site_fract_y
 _atom_site_fract_z
 _atom_site_occupancy
  Ba  Ba0  1  0.00000000  0.00000000  0.83036732  1
  Ba  Ba1  1  0.00000000  0.00000000  0.16963268  1
  Ba  Ba2  1  0.50000000  0.50000000  0.66217049  1
  Ba  Ba3  1  0.50000000  0.50000000  0.33782951  1
  Ba  Ba4  1  0.00000000  0.00000000  0.50000000  1
  P  P0  1  0.50000000  0.50000000  0.00000000  1
