# generated using pymatgen
data_1555_FeW
_symmetry_space_group_name_H-M   'P-6m2'
_cell_length_a   2.71746242
_cell_length_b   2.71742007
_cell_length_c   4.21097440
_cell_angle_alpha   90.00000000
_cell_angle_beta   90.00000000
_cell_angle_gamma   120.00051551
_chemical_formula_structural   FeW
_chemical_formula_sum   'Fe1 W1'
_cell_volume   26.92968681
loop_
 _symmetry_equiv_pos_site_id
 _symmetry_equiv_pos_as_xyz
  1  'x, y, z'
loop_
 _atom_type_symbol
  Fe
  W
loop_
 _atom_site_type_symbol
 _atom_site_label
 _atom_site_symmetry_multiplicity
 _atom_site_fract_x
 _atom_site_fract_y
 _atom_site_fract_z
 _atom_site_occupancy
  Fe  Fe0  1  0.66666761  0.33333422  0.75000000  1
  W  W0  1  0.33333239  0.66666578  0.25000000  1
