# generated using pymatgen
data_1558_AuPb
_symmetry_space_group_name_H-M   'Fm -3 m'
_cell_length_a   4.19899883
_cell_length_b   4.19899883
_cell_length_c   4.19899883
_cell_angle_alpha   60.00000000
_cell_angle_beta   60.00000000
_cell_angle_gamma   60.00000000
_chemical_formula_structural   AuPb
_chemical_formula_sum   'Au1 Pb1'
_cell_volume   52.35067243
loop_
 _symmetry_equiv_pos_site_id
 _symmetry_equiv_pos_as_xyz
  1  'x, y, z'
loop_
 _atom_type_symbol
  Au
  Pb
loop_
 _atom_site_type_symbol
 _atom_site_label
 _atom_site_symmetry_multiplicity
 _atom_site_fract_x
 _atom_site_fract_y
 _atom_site_fract_z
 _atom_site_occupancy
  Au  Au0  1  0.00000000  0.00000000  0.00000000  1
  Pb  Pb0  1  0.50000026  0.50000026  0.50000026  1
