# generated using pymatgen
data_1560_SmSr
_symmetry_space_group_name_H-M   'P-6m2'
_cell_length_a   3.84456977
_cell_length_b   3.84454087
_cell_length_c   6.35532717
_cell_angle_alpha   90.00000000
_cell_angle_beta   90.00000000
_cell_angle_gamma   120.00024092
_chemical_formula_structural   SmSr
_chemical_formula_sum   'Sm1 Sr1'
_cell_volume   81.35040501
loop_
 _symmetry_equiv_pos_site_id
 _symmetry_equiv_pos_as_xyz
  1  'x, y, z'
loop_
 _atom_type_symbol
  Sm
  Sr
loop_
 _atom_site_type_symbol
 _atom_site_label
 _atom_site_symmetry_multiplicity
 _atom_site_fract_x
 _atom_site_fract_y
 _atom_site_fract_z
 _atom_site_occupancy
  Sm  Sm0  1  0.66666747  0.33333393  0.75000000  1
  Sr  Sr0  1  0.33333253  0.66666607  0.25000000  1
