# generated using pymatgen
data_1565_In2Br2
_symmetry_space_group_name_H-M   'Cmcm'
_cell_length_a   6.83260334
_cell_length_b   6.83260334
_cell_length_c   4.71166034
_cell_angle_alpha   90.00000000
_cell_angle_beta   90.00000000
_cell_angle_gamma   142.01041874
_chemical_formula_structural   In2Br2
_chemical_formula_sum   'Br2 In2'
_cell_volume   135.39021311
loop_
 _symmetry_equiv_pos_site_id
 _symmetry_equiv_pos_as_xyz
  1  'x, y, z'
loop_
 _atom_type_symbol
  Br
  In
loop_
 _atom_site_type_symbol
 _atom_site_label
 _atom_site_symmetry_multiplicity
 _atom_site_fract_x
 _atom_site_fract_y
 _atom_site_fract_z
 _atom_site_occupancy
  Br  Br0  1  0.84463900  0.15536100  0.75000000  1
  Br  Br1  1  0.15536100  0.84463900  0.25000000  1
  In  In0  1  0.60819669  0.39180331  0.75000000  1
  In  In1  1  0.39180331  0.60819669  0.25000000  1
