# generated using pymatgen
data_156_Cr10Nb6
_symmetry_space_group_name_H-M   'I4/mcm'
_cell_length_a   5.03645658
_cell_length_b   7.24173272
_cell_length_c   7.24153408
_cell_angle_alpha   96.94854860
_cell_angle_beta   110.35889077
_cell_angle_gamma   69.65095433
_chemical_formula_structural   Cr10Nb6
_chemical_formula_sum   'Cr10 Nb6'
_cell_volume   232.16561921
loop_
 _symmetry_equiv_pos_site_id
 _symmetry_equiv_pos_as_xyz
  1  'x, y, z'
loop_
 _atom_type_symbol
  Cr
  Nb
loop_
 _atom_site_type_symbol
 _atom_site_label
 _atom_site_symmetry_multiplicity
 _atom_site_fract_x
 _atom_site_fract_y
 _atom_site_fract_z
 _atom_site_occupancy
  Cr  Cr0  1  0.75039877  0.50000000  0.50042368  1
  Cr  Cr1  1  0.25038293  0.50000000  0.50038964  1
  Cr  Cr2  1  0.26376126  0.79191476  0.31880829  1
  Cr  Cr3  1  0.73634451  0.20923064  0.68142569  1
  Cr  Cr4  1  0.23660688  0.31897662  0.79188423  1
  Cr  Cr5  1  0.76386904  0.68159618  0.20915911  1
  Cr  Cr6  1  0.44557515  0.79076936  0.68142569  1
  Cr  Cr7  1  0.55567602  0.20808524  0.31880829  1
  Cr  Cr8  1  0.94546522  0.31840382  0.20915911  1
  Cr  Cr9  1  0.05558350  0.68102338  0.79188423  1
  Nb  Nb0  1  0.25003774  0.99998714  0.99957525  1
  Nb  Nb1  1  0.75002487  0.00001286  0.99957525  1
  Nb  Nb2  1  0.69237547  0.50000000  0.88454107  1
  Nb  Nb3  1  0.30890018  0.50000000  0.11764490  1
  Nb  Nb4  1  0.80913896  0.88338719  0.50098113  1
  Nb  Nb5  1  0.19252616  0.11661281  0.50098113  1
