# generated using pymatgen
data_1570_Ge4As2
_symmetry_space_group_name_H-M   'Pnnm'
_cell_length_a   3.75076182
_cell_length_b   5.43161937
_cell_length_c   6.60586586
_cell_angle_alpha   90.00000000
_cell_angle_beta   90.00000000
_cell_angle_gamma   90.00000000
_chemical_formula_structural   Ge4As2
_chemical_formula_sum   'As2 Ge4'
_cell_volume   134.57939312
loop_
 _symmetry_equiv_pos_site_id
 _symmetry_equiv_pos_as_xyz
  1  'x, y, z'
loop_
 _atom_type_symbol
  As
  Ge
loop_
 _atom_site_type_symbol
 _atom_site_label
 _atom_site_symmetry_multiplicity
 _atom_site_fract_x
 _atom_site_fract_y
 _atom_site_fract_z
 _atom_site_occupancy
  As  As0  1  0.00000000  0.00000000  0.00000000  1
  As  As1  1  0.50000000  0.50000000  0.50000000  1
  Ge  Ge0  1  0.00000000  0.18506811  0.62502372  1
  Ge  Ge1  1  0.00000000  0.81493189  0.37497628  1
  Ge  Ge2  1  0.50000000  0.68506811  0.87497628  1
  Ge  Ge3  1  0.50000000  0.31493189  0.12502372  1
