# generated using pymatgen
data_1571_Ca2Rh4
_symmetry_space_group_name_H-M   'I4_1/amd'
_cell_length_a   8.00325506
_cell_length_b   8.00325506
_cell_length_c   8.00325506
_cell_angle_alpha   150.03597742
_cell_angle_beta   150.03597742
_cell_angle_gamma   42.88859454
_chemical_formula_structural   Ca2Rh4
_chemical_formula_sum   'Ca2 Rh4'
_cell_volume   127.54928339
loop_
 _symmetry_equiv_pos_site_id
 _symmetry_equiv_pos_as_xyz
  1  'x, y, z'
loop_
 _atom_type_symbol
  Ca
  Rh
loop_
 _atom_site_type_symbol
 _atom_site_label
 _atom_site_symmetry_multiplicity
 _atom_site_fract_x
 _atom_site_fract_y
 _atom_site_fract_z
 _atom_site_occupancy
  Ca  Ca0  1  0.00000000  0.00000000  0.00000000  1
  Ca  Ca1  1  0.25000000  0.75000000  0.50000000  1
  Rh  Rh0  1  0.57994705  0.57994705  0.00000000  1
  Rh  Rh1  1  0.67005295  0.17005295  0.50000000  1
  Rh  Rh2  1  0.42005295  0.42005295  0.00000000  1
  Rh  Rh3  1  0.82994705  0.32994705  0.50000000  1
