# generated using pymatgen
data_157_Ag3Al4
_symmetry_space_group_name_H-M   'P-1'
_cell_length_a   4.08114402
_cell_length_b   6.50573261
_cell_length_c   5.08018151
_cell_angle_alpha   98.51657970
_cell_angle_beta   115.86294243
_cell_angle_gamma   89.89715853
_chemical_formula_structural   Ag3Al4
_chemical_formula_sum   'Ag3 Al4'
_cell_volume   119.73547381
loop_
 _symmetry_equiv_pos_site_id
 _symmetry_equiv_pos_as_xyz
  1  'x, y, z'
loop_
 _atom_type_symbol
  Ag
  Al
loop_
 _atom_site_type_symbol
 _atom_site_label
 _atom_site_symmetry_multiplicity
 _atom_site_fract_x
 _atom_site_fract_y
 _atom_site_fract_z
 _atom_site_occupancy
  Ag  Ag0  1  0.00781815  0.99756972  0.00872474  1
  Ag  Ag1  1  0.42857143  0.28571429  0.85714286  1
  Ag  Ag2  1  0.84932470  0.57385885  0.70556098  1
  Al  Al0  1  0.71650351  0.14269161  0.42793336  1
  Al  Al1  1  0.14063935  0.42873696  0.28635235  1
  Al  Al2  1  0.57134997  0.71061794  0.14440196  1
  Al  Al3  1  0.28579289  0.86081064  0.56988375  1
