# generated using pymatgen
data_1584_SnW2
_symmetry_space_group_name_H-M   'I4/mmm'
_cell_length_a   5.31297782
_cell_length_b   5.31297782
_cell_length_c   5.31297782
_cell_angle_alpha   143.47092054
_cell_angle_beta   143.51604757
_cell_angle_gamma   52.58539690
_chemical_formula_structural   SnW2
_chemical_formula_sum   'Sn1 W2'
_cell_volume   52.76400944
loop_
 _symmetry_equiv_pos_site_id
 _symmetry_equiv_pos_as_xyz
  1  'x, y, z'
loop_
 _atom_type_symbol
  Sn
  W
loop_
 _atom_site_type_symbol
 _atom_site_label
 _atom_site_symmetry_multiplicity
 _atom_site_fract_x
 _atom_site_fract_y
 _atom_site_fract_z
 _atom_site_occupancy
  Sn  Sn0  1  0.00000000  0.00000000  0.00000000  1
  W  W0  1  0.67769847  0.67769847  1.00000000  1
  W  W1  1  0.32230153  0.32230153  1.00000000  1
