# generated using pymatgen
data_1589_CeBi
_symmetry_space_group_name_H-M   'P-6m2'
_cell_length_a   3.95303475
_cell_length_b   3.95303347
_cell_length_c   4.86705185
_cell_angle_alpha   90.00000000
_cell_angle_beta   90.00000000
_cell_angle_gamma   120.00001083
_chemical_formula_structural   CeBi
_chemical_formula_sum   'Bi1 Ce1'
_cell_volume   65.86545259
loop_
 _symmetry_equiv_pos_site_id
 _symmetry_equiv_pos_as_xyz
  1  'x, y, z'
loop_
 _atom_type_symbol
  Bi
  Ce
loop_
 _atom_site_type_symbol
 _atom_site_label
 _atom_site_symmetry_multiplicity
 _atom_site_fract_x
 _atom_site_fract_y
 _atom_site_fract_z
 _atom_site_occupancy
  Bi  Bi0  1  0.66666719  0.33333338  0.75000000  1
  Ce  Ce0  1  0.33333281  0.66666662  0.25000000  1
