# generated using pymatgen
data_1593_W2As2
_symmetry_space_group_name_H-M   'P4/nmm'
_cell_length_a   3.71048715
_cell_length_b   3.71048715
_cell_length_c   5.01046577
_cell_angle_alpha   90.00000000
_cell_angle_beta   90.00000000
_cell_angle_gamma   90.00000000
_chemical_formula_structural   W2As2
_chemical_formula_sum   'As2 W2'
_cell_volume   68.98266419
loop_
 _symmetry_equiv_pos_site_id
 _symmetry_equiv_pos_as_xyz
  1  'x, y, z'
loop_
 _atom_type_symbol
  As
  W
loop_
 _atom_site_type_symbol
 _atom_site_label
 _atom_site_symmetry_multiplicity
 _atom_site_fract_x
 _atom_site_fract_y
 _atom_site_fract_z
 _atom_site_occupancy
  As  As0  1  0.25000000  0.75000000  0.00000000  1
  As  As1  1  0.75000000  0.25000000  0.00000000  1
  W  W0  1  0.25000000  0.25000000  0.37688104  1
  W  W1  1  0.75000000  0.75000000  0.62311896  1
