# generated using pymatgen
data_1597_MoSn
_symmetry_space_group_name_H-M   'P-6m2'
_cell_length_a   3.21154600
_cell_length_b   3.21156266
_cell_length_c   4.24129400
_cell_angle_alpha   90.00000000
_cell_angle_beta   90.00000000
_cell_angle_gamma   120.00044068
_chemical_formula_structural   MoSn
_chemical_formula_sum   'Mo1 Sn1'
_cell_volume   37.88415704
loop_
 _symmetry_equiv_pos_site_id
 _symmetry_equiv_pos_as_xyz
  1  'x, y, z'
loop_
 _atom_type_symbol
  Mo
  Sn
loop_
 _atom_site_type_symbol
 _atom_site_label
 _atom_site_symmetry_multiplicity
 _atom_site_fract_x
 _atom_site_fract_y
 _atom_site_fract_z
 _atom_site_occupancy
  Mo  Mo0  1  0.66666820  0.33333491  0.74999993  1
  Sn  Sn0  1  0.33333364  0.66666717  0.24999921  1
