# generated using pymatgen
data_1606_Ba2In4
_symmetry_space_group_name_H-M   'Imma'
_cell_length_a   5.28762800
_cell_length_b   6.60257407
_cell_length_c   6.60257407
_cell_angle_alpha   99.12686138
_cell_angle_beta   113.60454425
_cell_angle_gamma   66.39545575
_chemical_formula_structural   Ba2In4
_chemical_formula_sum   'Ba2 In4'
_cell_volume   193.54915707
loop_
 _symmetry_equiv_pos_site_id
 _symmetry_equiv_pos_as_xyz
  1  'x, y, z'
loop_
 _atom_type_symbol
  Ba
  In
loop_
 _atom_site_type_symbol
 _atom_site_label
 _atom_site_symmetry_multiplicity
 _atom_site_fract_x
 _atom_site_fract_y
 _atom_site_fract_z
 _atom_site_occupancy
  Ba  Ba0  1  0.75000044  0.69935179  0.19935198  1
  Ba  Ba1  1  0.24999991  0.30064871  0.80064853  1
  In  In0  1  0.06746345  0.09459965  0.22952655  1
  In  In1  1  0.56746268  0.27047371  0.40540061  1
  In  In2  1  0.43253578  0.72952680  0.59459990  1
  In  In3  1  0.93253689  0.90540086  0.77047396  1
