# generated using pymatgen
data_1607_K2Na4
_symmetry_space_group_name_H-M   'Pnnm'
_cell_length_a   6.32539812
_cell_length_b   3.98620958
_cell_length_c   10.63802142
_cell_angle_alpha   90.00000000
_cell_angle_beta   90.00000000
_cell_angle_gamma   90.00000000
_chemical_formula_structural   K2Na4
_chemical_formula_sum   'K2 Na4'
_cell_volume   268.23092925
loop_
 _symmetry_equiv_pos_site_id
 _symmetry_equiv_pos_as_xyz
  1  'x, y, z'
loop_
 _atom_type_symbol
  K
  Na
loop_
 _atom_site_type_symbol
 _atom_site_label
 _atom_site_symmetry_multiplicity
 _atom_site_fract_x
 _atom_site_fract_y
 _atom_site_fract_z
 _atom_site_occupancy
  K  K0  1  0.00000000  0.00000000  0.00000000  1
  K  K1  1  0.50000000  0.50000000  0.50000000  1
  Na  Na0  1  0.00000000  0.19403830  0.66269663  1
  Na  Na1  1  0.00000000  0.80596170  0.33730337  1
  Na  Na2  1  0.50000000  0.69403830  0.83730337  1
  Na  Na3  1  0.50000000  0.30596170  0.16269663  1
