# generated using pymatgen
data_1615_CuP3
_symmetry_space_group_name_H-M   'Imm2'
_cell_length_a   5.94851572
_cell_length_b   5.94851572
_cell_length_c   5.94851572
_cell_angle_alpha   154.93357551
_cell_angle_beta   131.14723171
_cell_angle_gamma   55.68006452
_chemical_formula_structural   CuP3
_chemical_formula_sum   'Cu1 P3'
_cell_volume   66.80892788
loop_
 _symmetry_equiv_pos_site_id
 _symmetry_equiv_pos_as_xyz
  1  'x, y, z'
loop_
 _atom_type_symbol
  Cu
  P
loop_
 _atom_site_type_symbol
 _atom_site_label
 _atom_site_symmetry_multiplicity
 _atom_site_fract_x
 _atom_site_fract_y
 _atom_site_fract_z
 _atom_site_occupancy
  Cu  Cu0  1  0.91642536  1.00000000  0.91642536  1
  P  P0  1  0.50632514  0.50000000  0.00632514  1
  P  P1  1  0.05003362  0.34474220  0.70529142  1
  P  P2  1  0.36054921  0.65525780  0.70529142  1
