# generated using pymatgen
data_161_Ni2Ta4
_symmetry_space_group_name_H-M   'Fd -3 m'
_cell_length_a   5.30660310
_cell_length_b   5.30660310
_cell_length_c   5.30660310
_cell_angle_alpha   60.00000000
_cell_angle_beta   60.00000000
_cell_angle_gamma   60.00000000
_chemical_formula_structural   Ni2Ta4
_chemical_formula_sum   'Ni2 Ta4'
_cell_volume   105.66589170
loop_
 _symmetry_equiv_pos_site_id
 _symmetry_equiv_pos_as_xyz
  1  'x, y, z'
loop_
 _atom_type_symbol
  Ni
  Ta
loop_
 _atom_site_type_symbol
 _atom_site_label
 _atom_site_symmetry_multiplicity
 _atom_site_fract_x
 _atom_site_fract_y
 _atom_site_fract_z
 _atom_site_occupancy
  Ni  Ni0  1  0.87500000  0.37500000  0.87500000  1
  Ni  Ni1  1  0.12500000  0.62500000  0.12500000  1
  Ta  Ta0  1  0.50000000  0.00000000  0.50000000  1
  Ta  Ta1  1  0.50000000  0.00000000  1.00000000  1
  Ta  Ta2  1  0.00000000  0.00000000  0.50000000  1
  Ta  Ta3  1  0.50000000  0.50000000  0.50000000  1
