# generated using pymatgen
data_1621_FePb
_symmetry_space_group_name_H-M   'Pm -3 m'
_cell_length_a   4.60541161
_cell_length_b   4.60541161
_cell_length_c   3.26451791
_cell_angle_alpha   90.00000000
_cell_angle_beta   90.00000000
_cell_angle_gamma   90.00000000
_chemical_formula_structural   FePb
_chemical_formula_sum   'Fe2 Pb2'
_cell_volume   69.23982452
loop_
 _symmetry_equiv_pos_site_id
 _symmetry_equiv_pos_as_xyz
  1  'x, y, z'
loop_
 _atom_type_symbol
  Fe
  Pb
loop_
 _atom_site_type_symbol
 _atom_site_label
 _atom_site_symmetry_multiplicity
 _atom_site_fract_x
 _atom_site_fract_y
 _atom_site_fract_z
 _atom_site_occupancy
  Fe  Fe0  1  0.25000000  0.25000000  0.50005754  1
  Fe  Fe1  1  0.75000000  0.75000000  0.49994246  1
  Pb  Pb0  1  0.25000000  0.75000000  0.00000000  1
  Pb  Pb1  1  0.75000000  0.25000000  0.00000000  1
