# generated using pymatgen
data_1623_Cr8Pb4
_symmetry_space_group_name_H-M   'Pnma'
_cell_length_a   4.07322628
_cell_length_b   5.55050182
_cell_length_c   8.89853597
_cell_angle_alpha   90.00000000
_cell_angle_beta   90.00000000
_cell_angle_gamma   90.00000000
_chemical_formula_structural   Cr8Pb4
_chemical_formula_sum   'Cr8 Pb4'
_cell_volume   201.18210449
loop_
 _symmetry_equiv_pos_site_id
 _symmetry_equiv_pos_as_xyz
  1  'x, y, z'
loop_
 _atom_type_symbol
  Cr
  Pb
loop_
 _atom_site_type_symbol
 _atom_site_label
 _atom_site_symmetry_multiplicity
 _atom_site_fract_x
 _atom_site_fract_y
 _atom_site_fract_z
 _atom_site_occupancy
  Cr  Cr0  1  0.25000000  0.03321502  0.67509886  1
  Cr  Cr1  1  0.75000000  0.46678498  0.17509886  1
  Cr  Cr2  1  0.25000000  0.53321502  0.82490114  1
  Cr  Cr3  1  0.75000000  0.96678498  0.32490114  1
  Cr  Cr4  1  0.25000000  0.12140589  0.43747524  1
  Cr  Cr5  1  0.75000000  0.37859411  0.93747524  1
  Cr  Cr6  1  0.25000000  0.62140589  0.06252476  1
  Cr  Cr7  1  0.75000000  0.87859411  0.56252476  1
  Pb  Pb0  1  0.25000000  0.62456472  0.38426941  1
  Pb  Pb1  1  0.75000000  0.87543528  0.88426941  1
  Pb  Pb2  1  0.25000000  0.12456472  0.11573059  1
  Pb  Pb3  1  0.75000000  0.37543528  0.61573059  1
