# generated using pymatgen
data_1624_Al3Cu9
_symmetry_space_group_name_H-M   'Pmmm'
_cell_length_a   2.57796247
_cell_length_b   7.21226482
_cell_length_c   8.29003135
_cell_angle_alpha   90.00000000
_cell_angle_beta   90.00000000
_cell_angle_gamma   90.00000000
_chemical_formula_structural   Al3Cu9
_chemical_formula_sum   'Al3 Cu9'
_cell_volume   154.13612205
loop_
 _symmetry_equiv_pos_site_id
 _symmetry_equiv_pos_as_xyz
  1  'x, y, z'
loop_
 _atom_type_symbol
  Al
  Cu
loop_
 _atom_site_type_symbol
 _atom_site_label
 _atom_site_symmetry_multiplicity
 _atom_site_fract_x
 _atom_site_fract_y
 _atom_site_fract_z
 _atom_site_occupancy
  Al  Al0  1  0.00000000  0.00000000  0.00000000  1
  Al  Al1  1  0.50000000  0.32042243  0.50000000  1
  Al  Al2  1  0.50000000  0.67957757  0.50000000  1
  Cu  Cu0  1  0.00000000  0.00000000  0.50000000  1
  Cu  Cu1  1  0.50000000  0.33601855  0.00000000  1
  Cu  Cu2  1  0.50000000  0.66398145  0.00000000  1
  Cu  Cu3  1  0.00000000  0.50000000  0.74492645  1
  Cu  Cu4  1  0.00000000  0.50000000  0.25507355  1
  Cu  Cu5  1  0.50000000  0.83452097  0.75374396  1
  Cu  Cu6  1  0.50000000  0.16547903  0.24625604  1
  Cu  Cu7  1  0.50000000  0.83452097  0.24625604  1
  Cu  Cu8  1  0.50000000  0.16547903  0.75374396  1
