# generated using pymatgen
data_1625_In3Sm
_symmetry_space_group_name_H-M   'Pm -3 m'
_cell_length_a   4.73013729
_cell_length_b   4.73013800
_cell_length_c   4.73012739
_cell_angle_alpha   90.00000000
_cell_angle_beta   90.00000000
_cell_angle_gamma   90.00000000
_chemical_formula_structural   In3Sm
_chemical_formula_sum   'In3 Sm1'
_cell_volume   105.83282637
loop_
 _symmetry_equiv_pos_site_id
 _symmetry_equiv_pos_as_xyz
  1  'x, y, z'
loop_
 _atom_type_symbol
  In
  Sm
loop_
 _atom_site_type_symbol
 _atom_site_label
 _atom_site_symmetry_multiplicity
 _atom_site_fract_x
 _atom_site_fract_y
 _atom_site_fract_z
 _atom_site_occupancy
  In  In0  1  0.49999930  0.49999930  0.00000000  1
  In  In1  1  0.49999930  0.00000000  0.49999930  1
  In  In2  1  0.00000000  0.49999930  0.49999930  1
  Sm  Sm0  1  0.00000000  0.00000000  0.00000000  1
