# generated using pymatgen
data_1627_Al3Sb
_symmetry_space_group_name_H-M   'Immm'
_cell_length_a   5.34059945
_cell_length_b   5.34059945
_cell_length_c   5.34059945
_cell_angle_alpha   138.51486509
_cell_angle_beta   126.18410466
_cell_angle_gamma   70.15301420
_chemical_formula_structural   Al3Sb
_chemical_formula_sum   'Al3 Sb1'
_cell_volume   79.92340342
loop_
 _symmetry_equiv_pos_site_id
 _symmetry_equiv_pos_as_xyz
  1  'x, y, z'
loop_
 _atom_type_symbol
  Al
  Sb
loop_
 _atom_site_type_symbol
 _atom_site_label
 _atom_site_symmetry_multiplicity
 _atom_site_fract_x
 _atom_site_fract_y
 _atom_site_fract_z
 _atom_site_occupancy
  Al  Al0  1  0.98468408  0.98468408  1.00000000  1
  Al  Al1  1  0.75000000  0.25000000  0.50000000  1
  Al  Al2  1  0.51531592  0.51531592  0.00000000  1
  Sb  Sb0  1  0.25000000  0.75000000  0.50000000  1
