# generated using pymatgen
data_1628_Nb2W2
_symmetry_space_group_name_H-M   'Cmcm'
_cell_length_a   2.62932391
_cell_length_b   5.72340082
_cell_length_c   4.72996570
_cell_angle_alpha   90.00000000
_cell_angle_beta   90.00000000
_cell_angle_gamma   103.27937715
_chemical_formula_structural   Nb2W2
_chemical_formula_sum   'Nb2 W2'
_cell_volume   69.27648399
loop_
 _symmetry_equiv_pos_site_id
 _symmetry_equiv_pos_as_xyz
  1  'x, y, z'
loop_
 _atom_type_symbol
  Nb
  W
loop_
 _atom_site_type_symbol
 _atom_site_label
 _atom_site_symmetry_multiplicity
 _atom_site_fract_x
 _atom_site_fract_y
 _atom_site_fract_z
 _atom_site_occupancy
  Nb  Nb0  1  0.43282244  0.86564487  0.25000000  1
  Nb  Nb1  1  0.56717756  0.13435513  0.75000000  1
  W  W0  1  0.18298699  0.36597397  0.25000000  1
  W  W1  1  0.81701301  0.63402603  0.75000000  1
