# generated using pymatgen
data_1631_Mn16W8
_symmetry_space_group_name_H-M   'Fd -3 m'
_cell_length_a   7.72114478
_cell_length_b   7.72114478
_cell_length_c   7.72114478
_cell_angle_alpha   60.00000000
_cell_angle_beta   60.00000000
_cell_angle_gamma   60.00000000
_chemical_formula_structural   Mn16W8
_chemical_formula_sum   'Mn16 W8'
_cell_volume   325.48433359
loop_
 _symmetry_equiv_pos_site_id
 _symmetry_equiv_pos_as_xyz
  1  'x, y, z'
loop_
 _atom_type_symbol
  Mn
  W
loop_
 _atom_site_type_symbol
 _atom_site_label
 _atom_site_symmetry_multiplicity
 _atom_site_fract_x
 _atom_site_fract_y
 _atom_site_fract_z
 _atom_site_occupancy
  Mn  Mn0  1  0.50000000  0.00000000  0.50000000  1
  Mn  Mn1  1  0.50000000  0.00000000  0.00000000  1
  Mn  Mn2  1  0.00000000  0.00000000  0.50000000  1
  Mn  Mn3  1  0.50000000  0.50000000  0.50000000  1
  Mn  Mn4  1  0.31020181  0.81020181  0.93979819  1
  Mn  Mn5  1  0.93979819  0.81020181  0.31020181  1
  Mn  Mn6  1  0.93979819  0.81020181  0.93979819  1
  Mn  Mn7  1  0.31020181  0.43979819  0.31020181  1
  Mn  Mn8  1  0.31020181  0.43979819  0.93979819  1
  Mn  Mn9  1  0.93979819  0.43979819  0.31020181  1
  Mn  Mn10  1  0.68979819  0.18979819  0.06020181  1
  Mn  Mn11  1  0.06020181  0.18979819  0.68979819  1
  Mn  Mn12  1  0.06020181  0.18979819  0.06020181  1
  Mn  Mn13  1  0.68979819  0.56020181  0.68979819  1
  Mn  Mn14  1  0.68979819  0.56020181  0.06020181  1
  Mn  Mn15  1  0.06020181  0.56020181  0.68979819  1
  W  W0  1  0.71845073  0.84464781  0.71845073  1
  W  W1  1  0.34464781  0.21845073  0.71845073  1
  W  W2  1  0.71845073  0.21845073  0.34464781  1
  W  W3  1  0.71845073  0.21845073  0.71845073  1
  W  W4  1  0.28154927  0.15535219  0.28154927  1
  W  W5  1  0.65535219  0.78154927  0.28154927  1
  W  W6  1  0.28154927  0.78154927  0.65535219  1
  W  W7  1  0.28154927  0.78154927  0.28154927  1
