# generated using pymatgen
data_1633_Ba5Sn3
_symmetry_space_group_name_H-M   'Cmmm'
_cell_length_a   8.05911177
_cell_length_b   8.05911177
_cell_length_c   5.88204278
_cell_angle_alpha   90.00000000
_cell_angle_beta   90.00000000
_cell_angle_gamma   107.49834853
_chemical_formula_structural   Ba5Sn3
_chemical_formula_sum   'Ba5 Sn3'
_cell_volume   364.35604946
loop_
 _symmetry_equiv_pos_site_id
 _symmetry_equiv_pos_as_xyz
  1  'x, y, z'
loop_
 _atom_type_symbol
  Ba
  Sn
loop_
 _atom_site_type_symbol
 _atom_site_label
 _atom_site_symmetry_multiplicity
 _atom_site_fract_x
 _atom_site_fract_y
 _atom_site_fract_z
 _atom_site_occupancy
  Ba  Ba0  1  0.00000000  0.00000000  0.00000000  1
  Ba  Ba1  1  0.00000000  0.50000000  0.00000000  1
  Ba  Ba2  1  0.50000000  1.00000000  0.00000000  1
  Ba  Ba3  1  0.30804966  0.30804966  0.50000000  1
  Ba  Ba4  1  0.69195034  0.69195034  0.50000000  1
  Sn  Sn0  1  0.50000000  0.50000000  0.00000000  1
  Sn  Sn1  1  0.84479428  0.15520572  0.50000000  1
  Sn  Sn2  1  0.15520572  0.84479428  0.50000000  1
