# generated using pymatgen
data_1634_Cu2Na
_symmetry_space_group_name_H-M   'Immm'
_cell_length_a   5.56605626
_cell_length_b   5.56605626
_cell_length_c   5.56605626
_cell_angle_alpha   152.81723167
_cell_angle_beta   138.69217401
_cell_angle_gamma   50.15389017
_chemical_formula_structural   Cu2Na
_chemical_formula_sum   'Cu2 Na1'
_cell_volume   51.78444391
loop_
 _symmetry_equiv_pos_site_id
 _symmetry_equiv_pos_as_xyz
  1  'x, y, z'
loop_
 _atom_type_symbol
  Cu
  Na
loop_
 _atom_site_type_symbol
 _atom_site_label
 _atom_site_symmetry_multiplicity
 _atom_site_fract_x
 _atom_site_fract_y
 _atom_site_fract_z
 _atom_site_occupancy
  Cu  Cu0  1  0.71561003  0.71561003  1.00000000  1
  Cu  Cu1  1  0.28438997  0.28438997  0.00000000  1
  Na  Na0  1  0.00000000  0.00000000  0.00000000  1
