# generated using pymatgen
data_1660_V6W2
_symmetry_space_group_name_H-M   'I4/mmm'
_cell_length_a   3.57195758
_cell_length_b   3.57195758
_cell_length_c   9.35571496
_cell_angle_alpha   101.00514214
_cell_angle_beta   101.00514214
_cell_angle_gamma   90.00000000
_chemical_formula_structural   V6W2
_chemical_formula_sum   'V6 W2'
_cell_volume   114.93617650
loop_
 _symmetry_equiv_pos_site_id
 _symmetry_equiv_pos_as_xyz
  1  'x, y, z'
loop_
 _atom_type_symbol
  V
  W
loop_
 _atom_site_type_symbol
 _atom_site_label
 _atom_site_symmetry_multiplicity
 _atom_site_fract_x
 _atom_site_fract_y
 _atom_site_fract_z
 _atom_site_occupancy
  V  V0  1  0.00000000  0.50000000  0.00000000  1
  V  V1  1  0.50000000  0.00000000  0.00000000  1
  V  V2  1  0.25000000  0.75000000  0.50000000  1
  V  V3  1  0.75000000  0.25000000  0.50000000  1
  V  V4  1  0.12510092  0.12510092  0.25020183  1
  V  V5  1  0.87489908  0.87489908  0.74979817  1
  W  W0  1  0.37505319  0.37505319  0.75010639  1
  W  W1  1  0.62494681  0.62494681  0.24989361  1
