# generated using pymatgen
data_1665_Ba3Ta
_symmetry_space_group_name_H-M   'Immm'
_cell_length_a   7.91116360
_cell_length_b   7.91116360
_cell_length_c   7.91116360
_cell_angle_alpha   150.80877112
_cell_angle_beta   131.14735621
_cell_angle_gamma   57.92731881
_chemical_formula_structural   Ba3Ta
_chemical_formula_sum   'Ba3 Ta1'
_cell_volume   180.56964944
loop_
 _symmetry_equiv_pos_site_id
 _symmetry_equiv_pos_as_xyz
  1  'x, y, z'
loop_
 _atom_type_symbol
  Ba
  Ta
loop_
 _atom_site_type_symbol
 _atom_site_label
 _atom_site_symmetry_multiplicity
 _atom_site_fract_x
 _atom_site_fract_y
 _atom_site_fract_z
 _atom_site_occupancy
  Ba  Ba0  1  0.69311546  0.69311546  1.00000000  1
  Ba  Ba1  1  0.30688454  0.30688454  1.00000000  1
  Ba  Ba2  1  0.00000000  0.50000000  0.50000000  1
  Ta  Ta0  1  0.50000000  0.00000000  0.50000000  1
