# generated using pymatgen
data_1667_Cs4I12
_symmetry_space_group_name_H-M   'Pnma'
_cell_length_a   7.19764247
_cell_length_b   10.38851784
_cell_length_c   11.29887335
_cell_angle_alpha   90.00000000
_cell_angle_beta   90.00000000
_cell_angle_gamma   90.00000000
_chemical_formula_structural   Cs4I12
_chemical_formula_sum   'Cs4 I12'
_cell_volume   844.84881761
loop_
 _symmetry_equiv_pos_site_id
 _symmetry_equiv_pos_as_xyz
  1  'x, y, z'
loop_
 _atom_type_symbol
  Cs
  I
loop_
 _atom_site_type_symbol
 _atom_site_label
 _atom_site_symmetry_multiplicity
 _atom_site_fract_x
 _atom_site_fract_y
 _atom_site_fract_z
 _atom_site_occupancy
  Cs  Cs0  1  0.75000011  0.53093733  0.17646934  1
  Cs  Cs1  1  0.24999957  0.03093727  0.32353085  1
  Cs  Cs2  1  0.75000011  0.96906284  0.67646954  1
  Cs  Cs3  1  0.24999957  0.46906278  0.82353105  1
  I  I0  1  0.24999957  0.76095352  0.06555986  1
  I  I1  1  0.75000011  0.05629485  0.12854477  1
  I  I2  1  0.24999957  0.36789435  0.16798099  1
  I  I3  1  0.75000011  0.86789441  0.33201921  1
  I  I4  1  0.24999957  0.55629490  0.37145455  1
  I  I5  1  0.75000011  0.26095346  0.43444033  1
  I  I6  1  0.24999957  0.73904665  0.56555918  1
  I  I7  1  0.75000011  0.44370521  0.62854496  1
  I  I8  1  0.24999957  0.13210571  0.66798118  1
  I  I9  1  0.75000011  0.63210576  0.83201941  1
  I  I10  1  0.24999957  0.94370527  0.87145475  1
  I  I11  1  0.75000011  0.23904659  0.93444053  1
