# generated using pymatgen
data_1672_Al2P4
_symmetry_space_group_name_H-M   'I4/mcm'
_cell_length_a   5.04125217
_cell_length_b   5.04125217
_cell_length_c   5.04125217
_cell_angle_alpha   116.52825563
_cell_angle_beta   116.52825563
_cell_angle_gamma   96.12637600
_chemical_formula_structural   Al2P4
_chemical_formula_sum   'Al2 P4'
_cell_volume   94.76153818
loop_
 _symmetry_equiv_pos_site_id
 _symmetry_equiv_pos_as_xyz
  1  'x, y, z'
loop_
 _atom_type_symbol
  Al
  P
loop_
 _atom_site_type_symbol
 _atom_site_label
 _atom_site_symmetry_multiplicity
 _atom_site_fract_x
 _atom_site_fract_y
 _atom_site_fract_z
 _atom_site_occupancy
  Al  Al0  1  0.75000000  0.75000000  0.00000000  1
  Al  Al1  1  0.25000000  0.25000000  0.00000000  1
  P  P0  1  0.35149914  0.14850086  0.50000000  1
  P  P1  1  0.64850086  0.85149914  0.50000000  1
  P  P2  1  0.14850086  0.64850086  0.79700173  1
  P  P3  1  0.85149914  0.35149914  0.20299827  1
