# generated using pymatgen
data_1673_AsBr2
_symmetry_space_group_name_H-M   'I4/mmm'
_cell_length_a   7.00908354
_cell_length_b   7.00908354
_cell_length_c   7.00908354
_cell_angle_alpha   151.91130231
_cell_angle_beta   151.90809606
_cell_angle_gamma   40.14518637
_chemical_formula_structural   AsBr2
_chemical_formula_sum   'As1 Br2'
_cell_volume   76.19383891
loop_
 _symmetry_equiv_pos_site_id
 _symmetry_equiv_pos_as_xyz
  1  'x, y, z'
loop_
 _atom_type_symbol
  As
  Br
loop_
 _atom_site_type_symbol
 _atom_site_label
 _atom_site_symmetry_multiplicity
 _atom_site_fract_x
 _atom_site_fract_y
 _atom_site_fract_z
 _atom_site_occupancy
  As  As0  1  0.00000000  0.00000000  0.00000000  1
  Br  Br0  1  0.63268195  0.63268195  0.00000000  1
  Br  Br1  1  0.36731805  0.36731805  0.00000000  1
