# generated using pymatgen
data_1678_RhYb
_symmetry_space_group_name_H-M   'P-6m2'
_cell_length_a   3.27016328
_cell_length_b   3.27015128
_cell_length_c   4.16827876
_cell_angle_alpha   90.00000000
_cell_angle_beta   90.00000000
_cell_angle_gamma   120.00013150
_chemical_formula_structural   RhYb
_chemical_formula_sum   'Rh1 Yb1'
_cell_volume   38.60326989
loop_
 _symmetry_equiv_pos_site_id
 _symmetry_equiv_pos_as_xyz
  1  'x, y, z'
loop_
 _atom_type_symbol
  Rh
  Yb
loop_
 _atom_site_type_symbol
 _atom_site_label
 _atom_site_symmetry_multiplicity
 _atom_site_fract_x
 _atom_site_fract_y
 _atom_site_fract_z
 _atom_site_occupancy
  Rh  Rh0  1  0.66666886  0.33333559  0.74999988  1
  Yb  Yb0  1  0.33333200  0.66666399  0.24999996  1
