# generated using pymatgen
data_1679_KAs3
_symmetry_space_group_name_H-M   'I4/mmm'
_cell_length_a   5.47034084
_cell_length_b   5.47034084
_cell_length_c   5.47034084
_cell_angle_alpha   131.22343371
_cell_angle_beta   131.22343371
_cell_angle_gamma   71.45832937
_chemical_formula_structural   KAs3
_chemical_formula_sum   'As3 K1'
_cell_volume   90.63020094
loop_
 _symmetry_equiv_pos_site_id
 _symmetry_equiv_pos_as_xyz
  1  'x, y, z'
loop_
 _atom_type_symbol
  As
  K
loop_
 _atom_site_type_symbol
 _atom_site_label
 _atom_site_symmetry_multiplicity
 _atom_site_fract_x
 _atom_site_fract_y
 _atom_site_fract_z
 _atom_site_occupancy
  As  As0  1  0.25000000  0.75000000  0.50000000  1
  As  As1  1  0.50000000  0.50000000  0.00000000  1
  As  As2  1  0.75000000  0.25000000  0.50000000  1
  K  K0  1  0.00000000  0.00000000  0.00000000  1
