# generated using pymatgen
data_1682_AcNb
_symmetry_space_group_name_H-M   'Fm -3 m'
_cell_length_a   4.44245822
_cell_length_b   4.44245822
_cell_length_c   4.44245822
_cell_angle_alpha   60.00000000
_cell_angle_beta   60.00000000
_cell_angle_gamma   60.00000000
_chemical_formula_structural   AcNb
_chemical_formula_sum   'Ac1 Nb1'
_cell_volume   61.99477061
loop_
 _symmetry_equiv_pos_site_id
 _symmetry_equiv_pos_as_xyz
  1  'x, y, z'
loop_
 _atom_type_symbol
  Ac
  Nb
loop_
 _atom_site_type_symbol
 _atom_site_label
 _atom_site_symmetry_multiplicity
 _atom_site_fract_x
 _atom_site_fract_y
 _atom_site_fract_z
 _atom_site_occupancy
  Ac  Ac0  1  0.00000000  0.00000000  0.00000000  1
  Nb  Nb0  1  0.50000000  0.50000000  0.50000000  1
