# generated using pymatgen
data_169_Cu3Ta
_symmetry_space_group_name_H-M   'P4/mmm'
_cell_length_a   2.73585101
_cell_length_b   2.73585101
_cell_length_c   7.27934111
_cell_angle_alpha   90.00000000
_cell_angle_beta   90.00000000
_cell_angle_gamma   90.00000000
_chemical_formula_structural   Cu3Ta
_chemical_formula_sum   'Cu3 Ta1'
_cell_volume   54.48500006
loop_
 _symmetry_equiv_pos_site_id
 _symmetry_equiv_pos_as_xyz
  1  'x, y, z'
loop_
 _atom_type_symbol
  Cu
  Ta
loop_
 _atom_site_type_symbol
 _atom_site_label
 _atom_site_symmetry_multiplicity
 _atom_site_fract_x
 _atom_site_fract_y
 _atom_site_fract_z
 _atom_site_occupancy
  Cu  Cu0  1  0.00000000  0.00000000  0.97662830  1
  Cu  Cu1  1  0.50000000  0.50000000  0.75000000  1
  Cu  Cu2  1  0.00000000  0.00000000  0.52337170  1
  Ta  Ta0  1  0.50000000  0.50000000  0.25000000  1
