# generated using pymatgen
data_16_Ac4I6
_symmetry_space_group_name_H-M   'R -3 c'
_cell_length_a   7.50143300
_cell_length_b   7.50143228
_cell_length_c   9.93342240
_cell_angle_alpha   112.18420698
_cell_angle_beta   67.81579871
_cell_angle_gamma   119.99999877
_chemical_formula_structural   Ac4I6
_chemical_formula_sum   'Ac4 I6'
_cell_volume   435.64743341
loop_
 _symmetry_equiv_pos_site_id
 _symmetry_equiv_pos_as_xyz
  1  'x, y, z'
loop_
 _atom_type_symbol
  Ac
  I
loop_
 _atom_site_type_symbol
 _atom_site_label
 _atom_site_symmetry_multiplicity
 _atom_site_fract_x
 _atom_site_fract_y
 _atom_site_fract_z
 _atom_site_occupancy
  Ac  Ac0  1  0.66893779  0.33106334  0.99318870  1
  Ac  Ac1  1  0.33106257  0.66893644  0.00681130  1
  Ac  Ac2  1  0.16893676  0.83106229  0.49318877  1
  Ac  Ac3  1  0.83106250  0.16893715  0.50681136  1
  I  I0  1  0.25000085  0.09004781  0.25000003  1
  I  I1  1  0.90995241  0.40995267  0.25000003  1
  I  I2  1  0.59004669  0.74999936  0.25000003  1
  I  I3  1  0.40995257  0.25000007  0.75000009  1
  I  I4  1  0.09004685  0.59004676  0.75000009  1
  I  I5  1  0.75000052  0.90995316  0.75000010  1
