# generated using pymatgen
data_1701_Na5Pt
_symmetry_space_group_name_H-M   'F-43m'
_cell_length_a   5.91682930
_cell_length_b   5.91682930
_cell_length_c   5.91682930
_cell_angle_alpha   60.00000000
_cell_angle_beta   60.00000000
_cell_angle_gamma   60.00000000
_chemical_formula_structural   Na5Pt
_chemical_formula_sum   'Na5 Pt1'
_cell_volume   146.47116036
loop_
 _symmetry_equiv_pos_site_id
 _symmetry_equiv_pos_as_xyz
  1  'x, y, z'
loop_
 _atom_type_symbol
  Na
  Pt
loop_
 _atom_site_type_symbol
 _atom_site_label
 _atom_site_symmetry_multiplicity
 _atom_site_fract_x
 _atom_site_fract_y
 _atom_site_fract_z
 _atom_site_occupancy
  Na  Na0  1  0.75000000  0.75000000  0.75000000  1
  Na  Na1  1  0.37302744  0.37302744  0.88091769  1
  Na  Na2  1  0.88091769  0.37302744  0.37302744  1
  Na  Na3  1  0.37302744  0.88091769  0.37302744  1
  Na  Na4  1  0.37302744  0.37302744  0.37302744  1
  Pt  Pt0  1  0.00000000  0.00000000  0.00000000  1
