# generated using pymatgen
data_1704_P16Br4
_symmetry_space_group_name_H-M   'I23'
_cell_length_a   8.61651844
_cell_length_b   8.61651844
_cell_length_c   8.61651844
_cell_angle_alpha   109.47122063
_cell_angle_beta   109.47122063
_cell_angle_gamma   109.47122063
_chemical_formula_structural   P16Br4
_chemical_formula_sum   'Br4 P16'
_cell_volume   492.46296365
loop_
 _symmetry_equiv_pos_site_id
 _symmetry_equiv_pos_as_xyz
  1  'x, y, z'
loop_
 _atom_type_symbol
  Br
  P
loop_
 _atom_site_type_symbol
 _atom_site_label
 _atom_site_symmetry_multiplicity
 _atom_site_fract_x
 _atom_site_fract_y
 _atom_site_fract_z
 _atom_site_occupancy
  Br  Br0  1  0.49691233  0.49691233  0.49691233  1
  Br  Br1  1  0.50308767  0.00000000  0.00000000  1
  Br  Br2  1  1.00000000  0.50308767  0.00000000  1
  Br  Br3  1  1.00000000  0.00000000  0.50308767  1
  P  P0  1  0.77388701  0.77388701  0.77388701  1
  P  P1  1  0.22611299  0.00000000  0.00000000  1
  P  P2  1  1.00000000  0.22611299  0.00000000  1
  P  P3  1  1.00000000  0.00000000  0.22611299  1
  P  P4  1  0.72962845  0.72962845  0.00000000  1
  P  P5  1  0.27037155  0.27037155  0.00000000  1
  P  P6  1  0.72962845  0.00000000  0.72962845  1
  P  P7  1  0.27037155  0.00000000  0.27037155  1
  P  P8  1  0.00000000  0.72962845  0.72962845  1
  P  P9  1  1.00000000  0.27037155  0.27037155  1
  P  P10  1  0.10141077  0.60141077  0.50000000  1
  P  P11  1  0.89858923  0.39858923  0.50000000  1
  P  P12  1  0.60141077  0.50000000  0.10141077  1
  P  P13  1  0.39858923  0.50000000  0.89858923  1
  P  P14  1  0.50000000  0.10141077  0.60141077  1
  P  P15  1  0.50000000  0.89858923  0.39858923  1
