# generated using pymatgen
data_1706_CsIr
_symmetry_space_group_name_H-M   'P-6m2'
_cell_length_a   3.20805000
_cell_length_b   3.20544812
_cell_length_c   5.83055100
_cell_angle_alpha   90.00000000
_cell_angle_beta   90.00000000
_cell_angle_gamma   120.02685462
_chemical_formula_structural   CsIr
_chemical_formula_sum   'Cs1 Ir1'
_cell_volume   51.91017887
loop_
 _symmetry_equiv_pos_site_id
 _symmetry_equiv_pos_as_xyz
  1  'x, y, z'
loop_
 _atom_type_symbol
  Cs
  Ir
loop_
 _atom_site_type_symbol
 _atom_site_label
 _atom_site_symmetry_multiplicity
 _atom_site_fract_x
 _atom_site_fract_y
 _atom_site_fract_z
 _atom_site_occupancy
  Cs  Cs0  1  0.66701369  0.33402419  0.74999950  1
  Ir  Ir0  1  0.33298825  0.66597650  0.25000041  1
