# generated using pymatgen
data_170_AlTa2
_symmetry_space_group_name_H-M   'I4/mmm'
_cell_length_a   3.44637142
_cell_length_b   5.04808741
_cell_length_c   3.44637142
_cell_angle_alpha   70.08736657
_cell_angle_beta   89.86134551
_cell_angle_gamma   70.08736657
_chemical_formula_structural   AlTa2
_chemical_formula_sum   'Al1 Ta2'
_cell_volume   52.56407133
loop_
 _symmetry_equiv_pos_site_id
 _symmetry_equiv_pos_as_xyz
  1  'x, y, z'
loop_
 _atom_type_symbol
  Al
  Ta
loop_
 _atom_site_type_symbol
 _atom_site_label
 _atom_site_symmetry_multiplicity
 _atom_site_fract_x
 _atom_site_fract_y
 _atom_site_fract_z
 _atom_site_occupancy
  Al  Al0  1  0.00000000  0.00000000  0.00000000  1
  Ta  Ta0  1  0.33231191  0.33532735  0.33231191  1
  Ta  Ta1  1  0.66768809  0.66467265  0.66768809  1
