# generated using pymatgen
data_1719_Al3Ga
_symmetry_space_group_name_H-M   'Cmmm'
_cell_length_a   4.95733897
_cell_length_b   4.95733897
_cell_length_c   2.90733455
_cell_angle_alpha   90.00000000
_cell_angle_beta   90.00000000
_cell_angle_gamma   109.62211768
_chemical_formula_structural   Al3Ga
_chemical_formula_sum   'Al3 Ga1'
_cell_volume   67.29919923
loop_
 _symmetry_equiv_pos_site_id
 _symmetry_equiv_pos_as_xyz
  1  'x, y, z'
loop_
 _atom_type_symbol
  Al
  Ga
loop_
 _atom_site_type_symbol
 _atom_site_label
 _atom_site_symmetry_multiplicity
 _atom_site_fract_x
 _atom_site_fract_y
 _atom_site_fract_z
 _atom_site_occupancy
  Al  Al0  1  0.00000000  0.50000000  0.50000000  1
  Al  Al1  1  0.50000000  0.00000000  0.50000000  1
  Al  Al2  1  0.50000000  0.50000000  0.00000000  1
  Ga  Ga0  1  0.00000000  0.00000000  0.00000000  1
