# generated using pymatgen
data_171_Cu5Pt5
_symmetry_space_group_name_H-M   'P1'
_cell_length_a   6.04426232
_cell_length_b   5.42233422
_cell_length_c   4.65940026
_cell_angle_alpha   73.64362843
_cell_angle_beta   82.36078512
_cell_angle_gamma   102.86550925
_chemical_formula_structural   Cu5Pt5
_chemical_formula_sum   'Cu5 Pt5'
_cell_volume   139.68943779
loop_
 _symmetry_equiv_pos_site_id
 _symmetry_equiv_pos_as_xyz
  1  'x, y, z'
loop_
 _atom_type_symbol
  Cu
  Pt
loop_
 _atom_site_type_symbol
 _atom_site_label
 _atom_site_symmetry_multiplicity
 _atom_site_fract_x
 _atom_site_fract_y
 _atom_site_fract_z
 _atom_site_occupancy
  Cu  Cu0  1  0.00361761  0.00184687  0.99974663  1
  Cu  Cu1  1  0.59605241  0.09802005  0.20109804  1
  Cu  Cu2  1  0.20118456  0.19950197  0.39812909  1
  Cu  Cu3  1  0.39691483  0.39694316  0.80224820  1
  Cu  Cu4  1  0.20213023  0.70272438  0.39927832  1
  Pt  Pt0  1  0.79941993  0.29807648  0.60561331  1
  Pt  Pt1  1  0.00969100  0.49469092  0.00284065  1
  Pt  Pt2  1  0.58713349  0.59251737  0.20454520  1
  Pt  Pt3  1  0.80988049  0.80738356  0.59040243  1
  Pt  Pt4  1  0.39397545  0.90829524  0.79609812  1
