# generated using pymatgen
data_1721_Al10Au20
_symmetry_space_group_name_H-M   'Pnnm'
_cell_length_a   9.01756300
_cell_length_b   17.12155800
_cell_length_c   3.28890600
_cell_angle_alpha   90.00000000
_cell_angle_beta   90.00000000
_cell_angle_gamma   90.00000000
_chemical_formula_structural   Al10Au20
_chemical_formula_sum   'Al10 Au20'
_cell_volume   507.78974703
loop_
 _symmetry_equiv_pos_site_id
 _symmetry_equiv_pos_as_xyz
  1  'x, y, z'
loop_
 _atom_type_symbol
  Al
  Au
loop_
 _atom_site_type_symbol
 _atom_site_label
 _atom_site_symmetry_multiplicity
 _atom_site_fract_x
 _atom_site_fract_y
 _atom_site_fract_z
 _atom_site_occupancy
  Al  Al0  1  0.00000000  0.00000000  0.00000000  1
  Al  Al1  1  0.97737270  0.20151846  0.00000000  1
  Al  Al2  1  0.02745198  0.40106748  0.00000000  1
  Al  Al3  1  0.97254878  0.59893265  0.00000000  1
  Al  Al4  1  0.02262696  0.79848167  0.00000000  1
  Al  Al5  1  0.52745181  0.09893259  0.49999913  1
  Al  Al6  1  0.47737287  0.29848160  0.49999913  1
  Al  Al7  1  0.49999983  0.50000007  0.49999913  1
  Al  Al8  1  0.52262678  0.70151853  0.49999913  1
  Al  Al9  1  0.47254895  0.90106755  0.49999913  1
  Au  Au0  1  0.34487588  0.01374232  0.00000000  1
  Au  Au1  1  0.35853589  0.18694736  0.00000000  1
  Au  Au2  1  0.66634077  0.21284862  0.00000000  1
  Au  Au3  1  0.63459827  0.39435723  0.00000000  1
  Au  Au4  1  0.32551810  0.40406370  0.00000000  1
  Au  Au5  1  0.67448266  0.59593643  0.00000000  1
  Au  Au6  1  0.36540249  0.60564232  0.00000000  1
  Au  Au7  1  0.33365999  0.78715151  0.00000000  1
  Au  Au8  1  0.64146377  0.81305278  0.00000000  1
  Au  Au9  1  0.65512378  0.98625781  0.00000000  1
  Au  Au10  1  0.82551792  0.09593578  0.49999913  1
  Au  Au11  1  0.13459734  0.10564226  0.49999913  1
  Au  Au12  1  0.16633984  0.28715144  0.49999913  1
  Au  Au13  1  0.85853682  0.31305271  0.49999913  1
  Au  Au14  1  0.84487570  0.48625774  0.49999913  1
  Au  Au15  1  0.15512395  0.51374181  0.49999913  1
  Au  Au16  1  0.14146394  0.68694743  0.49999913  1
  Au  Au17  1  0.83365981  0.71284811  0.49999913  1
  Au  Au18  1  0.86540231  0.89435729  0.49999913  1
  Au  Au19  1  0.17448173  0.90406377  0.49999913  1
