# generated using pymatgen
data_1722_Al18In6
_symmetry_space_group_name_H-M   'Pmmn'
_cell_length_a   5.25036049
_cell_length_b   6.03181383
_cell_length_c   15.05763964
_cell_angle_alpha   90.00000000
_cell_angle_beta   90.00000000
_cell_angle_gamma   90.00000000
_chemical_formula_structural   Al18In6
_chemical_formula_sum   'Al18 In6'
_cell_volume   476.86335636
loop_
 _symmetry_equiv_pos_site_id
 _symmetry_equiv_pos_as_xyz
  1  'x, y, z'
loop_
 _atom_type_symbol
  Al
  In
loop_
 _atom_site_type_symbol
 _atom_site_label
 _atom_site_symmetry_multiplicity
 _atom_site_fract_x
 _atom_site_fract_y
 _atom_site_fract_z
 _atom_site_occupancy
  Al  Al0  1  0.16725506  0.99699617  0.41846511  1
  Al  Al1  1  0.16725506  0.99699617  0.08153489  1
  Al  Al2  1  0.51073310  0.00070646  0.75000000  1
  Al  Al3  1  0.48926690  0.99929354  0.25000000  1
  Al  Al4  1  0.83274494  0.00300383  0.91846511  1
  Al  Al5  1  0.83274494  0.00300383  0.58153489  1
  Al  Al6  1  0.02671398  0.25000000  0.25000000  1
  Al  Al7  1  0.33630888  0.25000000  0.91798130  1
  Al  Al8  1  0.33630888  0.25000000  0.58201870  1
  Al  Al9  1  0.16725506  0.50300383  0.41846511  1
  Al  Al10  1  0.16725506  0.50300383  0.08153489  1
  Al  Al11  1  0.51073310  0.49929354  0.75000000  1
  Al  Al12  1  0.48926690  0.50070646  0.25000000  1
  Al  Al13  1  0.83274494  0.49699617  0.91846511  1
  Al  Al14  1  0.83274494  0.49699617  0.58153489  1
  Al  Al15  1  0.97328602  0.75000000  0.75000000  1
  Al  Al16  1  0.66369112  0.75000000  0.41798130  1
  Al  Al17  1  0.66369112  0.75000000  0.08201870  1
  In  In0  1  0.01132030  0.25000000  0.75000000  1
  In  In1  1  0.66806266  0.25000000  0.41384876  1
  In  In2  1  0.66806266  0.25000000  0.08615124  1
  In  In3  1  0.98867970  0.75000000  0.25000000  1
  In  In4  1  0.33193734  0.75000000  0.91384876  1
  In  In5  1  0.33193734  0.75000000  0.58615124  1
