# generated using pymatgen
data_1723_Ag4Sn
_symmetry_space_group_name_H-M   'I4/m'
_cell_length_a   5.16631517
_cell_length_b   5.16631517
_cell_length_c   5.16631517
_cell_angle_alpha   100.04793759
_cell_angle_beta   100.04793759
_cell_angle_gamma   130.62125585
_chemical_formula_structural   Ag4Sn
_chemical_formula_sum   'Ag4 Sn1'
_cell_volume   95.09713138
loop_
 _symmetry_equiv_pos_site_id
 _symmetry_equiv_pos_as_xyz
  1  'x, y, z'
loop_
 _atom_type_symbol
  Ag
  Sn
loop_
 _atom_site_type_symbol
 _atom_site_label
 _atom_site_symmetry_multiplicity
 _atom_site_fract_x
 _atom_site_fract_y
 _atom_site_fract_z
 _atom_site_occupancy
  Ag  Ag0  1  0.80387575  0.39872047  0.20259622  1
  Ag  Ag1  1  0.39872047  0.19612425  0.59484473  1
  Ag  Ag2  1  0.19612425  0.60127953  0.79740378  1
  Ag  Ag3  1  0.60127953  0.80387575  0.40515527  1
  Sn  Sn0  1  0.00000000  0.00000000  0.00000000  1
