# generated using pymatgen
data_1729_AgGe
_symmetry_space_group_name_H-M   'Cmmm'
_cell_length_a   2.91482992
_cell_length_b   2.91482992
_cell_length_c   4.72520430
_cell_angle_alpha   90.00000000
_cell_angle_beta   90.00000000
_cell_angle_gamma   109.78578877
_chemical_formula_structural   AgGe
_chemical_formula_sum   'Ag1 Ge1'
_cell_volume   37.77638415
loop_
 _symmetry_equiv_pos_site_id
 _symmetry_equiv_pos_as_xyz
  1  'x, y, z'
loop_
 _atom_type_symbol
  Ag
  Ge
loop_
 _atom_site_type_symbol
 _atom_site_label
 _atom_site_symmetry_multiplicity
 _atom_site_fract_x
 _atom_site_fract_y
 _atom_site_fract_z
 _atom_site_occupancy
  Ag  Ag0  1  0.00000000  0.00000000  0.00000000  1
  Ge  Ge0  1  0.50000000  0.50000000  0.50000000  1
