# generated using pymatgen
data_1730_Cr4Sn8
_symmetry_space_group_name_H-M   'Fddd'
_cell_length_a   5.40732833
_cell_length_b   5.39209876
_cell_length_c   9.58961051
_cell_angle_alpha   98.12693074
_cell_angle_beta   106.37583342
_cell_angle_gamma   59.90652485
_chemical_formula_structural   Cr4Sn8
_chemical_formula_sum   'Cr4 Sn8'
_cell_volume   232.10098302
loop_
 _symmetry_equiv_pos_site_id
 _symmetry_equiv_pos_as_xyz
  1  'x, y, z'
loop_
 _atom_type_symbol
  Cr
  Sn
loop_
 _atom_site_type_symbol
 _atom_site_label
 _atom_site_symmetry_multiplicity
 _atom_site_fract_x
 _atom_site_fract_y
 _atom_site_fract_z
 _atom_site_occupancy
  Cr  Cr0  1  0.25170108  0.75000000  0.00340216  1
  Cr  Cr1  1  0.99829892  0.75000000  0.49659784  1
  Cr  Cr2  1  0.00170108  0.25000000  0.50340216  1
  Cr  Cr3  1  0.74829892  0.25000000  0.99659784  1
  Sn  Sn0  1  0.29362530  0.25000000  0.08725060  1
  Sn  Sn1  1  0.71023217  0.57953565  0.25000000  1
  Sn  Sn2  1  0.03976783  0.92046435  0.25000000  1
  Sn  Sn3  1  0.45637470  0.25000000  0.41274940  1
  Sn  Sn4  1  0.54362530  0.75000000  0.58725060  1
  Sn  Sn5  1  0.96023217  0.07953565  0.75000000  1
  Sn  Sn6  1  0.28976783  0.42046435  0.75000000  1
  Sn  Sn7  1  0.70637470  0.75000000  0.91274940  1
