# generated using pymatgen
data_1732_PaSr
_symmetry_space_group_name_H-M   'R -3 m'
_cell_length_a   6.64778394
_cell_length_b   6.64778394
_cell_length_c   6.64778394
_cell_angle_alpha   29.70791908
_cell_angle_beta   29.70791908
_cell_angle_gamma   29.70791126
_chemical_formula_structural   PaSr
_chemical_formula_sum   'Pa1 Sr1'
_cell_volume   63.88450963
loop_
 _symmetry_equiv_pos_site_id
 _symmetry_equiv_pos_as_xyz
  1  'x, y, z'
loop_
 _atom_type_symbol
  Pa
  Sr
loop_
 _atom_site_type_symbol
 _atom_site_label
 _atom_site_symmetry_multiplicity
 _atom_site_fract_x
 _atom_site_fract_y
 _atom_site_fract_z
 _atom_site_occupancy
  Pa  Pa0  1  0.00000000  0.00000000  0.00000000  1
  Sr  Sr0  1  0.49999985  0.49999985  0.50000036  1
