# generated using pymatgen
data_1734_AgGe3
_symmetry_space_group_name_H-M   'Immm'
_cell_length_a   5.88256340
_cell_length_b   5.88256340
_cell_length_c   5.88256340
_cell_angle_alpha   150.63305856
_cell_angle_beta   130.25178174
_cell_angle_gamma   58.82561041
_chemical_formula_structural   AgGe3
_chemical_formula_sum   'Ag1 Ge3'
_cell_volume   75.62539946
loop_
 _symmetry_equiv_pos_site_id
 _symmetry_equiv_pos_as_xyz
  1  'x, y, z'
loop_
 _atom_type_symbol
  Ag
  Ge
loop_
 _atom_site_type_symbol
 _atom_site_label
 _atom_site_symmetry_multiplicity
 _atom_site_fract_x
 _atom_site_fract_y
 _atom_site_fract_z
 _atom_site_occupancy
  Ag  Ag0  1  0.00000000  0.00000000  0.00000000  1
  Ge  Ge0  1  0.74262747  0.24262747  0.50000000  1
  Ge  Ge1  1  0.50000000  0.50000000  1.00000000  1
  Ge  Ge2  1  0.25737253  0.75737253  0.50000000  1
