# generated using pymatgen
data_1748_Ag4Al3
_symmetry_space_group_name_H-M   'I4/mmm'
_cell_length_a   14.35006868
_cell_length_b   2.89902971
_cell_length_c   2.89902971
_cell_angle_alpha   90.00000009
_cell_angle_beta   95.79736362
_cell_angle_gamma   95.79736359
_chemical_formula_structural   Ag4Al3
_chemical_formula_sum   'Ag4 Al3'
_cell_volume   119.36646039
loop_
 _symmetry_equiv_pos_site_id
 _symmetry_equiv_pos_as_xyz
  1  'x, y, z'
loop_
 _atom_type_symbol
  Ag
  Al
loop_
 _atom_site_type_symbol
 _atom_site_label
 _atom_site_symmetry_multiplicity
 _atom_site_fract_x
 _atom_site_fract_y
 _atom_site_fract_z
 _atom_site_occupancy
  Ag  Ag0  1  0.99418201  0.99709101  0.99709101  1
  Ag  Ag1  1  0.15051161  0.57525581  0.57525581  1
  Ag  Ag2  1  0.42091696  0.71045848  0.71045848  1
  Ag  Ag3  1  0.57724656  0.28862328  0.28862328  1
  Al  Al0  1  0.28571429  0.14285714  0.14285714  1
  Al  Al1  1  0.71451514  0.85725757  0.85725757  1
  Al  Al2  1  0.85691343  0.42845671  0.42845671  1
