# generated using pymatgen
data_1749_Au2Ga4
_symmetry_space_group_name_H-M   'I4_1/amd'
_cell_length_a   11.44830040
_cell_length_b   11.44830040
_cell_length_c   11.44830040
_cell_angle_alpha   163.84276067
_cell_angle_beta   163.84276067
_cell_angle_gamma   22.92680384
_chemical_formula_structural   Au2Ga4
_chemical_formula_sum   'Au2 Ga4'
_cell_volume   116.16658869
loop_
 _symmetry_equiv_pos_site_id
 _symmetry_equiv_pos_as_xyz
  1  'x, y, z'
loop_
 _atom_type_symbol
  Au
  Ga
loop_
 _atom_site_type_symbol
 _atom_site_label
 _atom_site_symmetry_multiplicity
 _atom_site_fract_x
 _atom_site_fract_y
 _atom_site_fract_z
 _atom_site_occupancy
  Au  Au0  1  0.00000000  0.00000000  0.00000000  1
  Au  Au1  1  0.25000000  0.75000000  0.50000000  1
  Ga  Ga0  1  0.57451228  0.57451228  0.00000000  1
  Ga  Ga1  1  0.67548772  0.17548772  0.50000000  1
  Ga  Ga2  1  0.42548772  0.42548772  0.00000000  1
  Ga  Ga3  1  0.82451228  0.32451228  0.50000000  1
