# generated using pymatgen
data_1753_Ir2Pb
_symmetry_space_group_name_H-M   'I4/mmm'
_cell_length_a   6.18924624
_cell_length_b   6.18924624
_cell_length_c   6.18924624
_cell_angle_alpha   150.46373547
_cell_angle_beta   150.46373547
_cell_angle_gamma   42.26111331
_chemical_formula_structural   Ir2Pb
_chemical_formula_sum   'Ir2 Pb1'
_cell_volume   57.47919653
loop_
 _symmetry_equiv_pos_site_id
 _symmetry_equiv_pos_as_xyz
  1  'x, y, z'
loop_
 _atom_type_symbol
  Ir
  Pb
loop_
 _atom_site_type_symbol
 _atom_site_label
 _atom_site_symmetry_multiplicity
 _atom_site_fract_x
 _atom_site_fract_y
 _atom_site_fract_z
 _atom_site_occupancy
  Ir  Ir0  1  0.30746146  0.30746146  0.00000000  1
  Ir  Ir1  1  0.69253854  0.69253854  0.00000000  1
  Pb  Pb0  1  0.00000000  0.00000000  0.00000000  1
