# generated using pymatgen
data_180_Pd2Rh2
_symmetry_space_group_name_H-M   'P4/nmm'
_cell_length_a   2.79855231
_cell_length_b   2.79855231
_cell_length_c   7.52332527
_cell_angle_alpha   90.00000000
_cell_angle_beta   90.00000000
_cell_angle_gamma   90.00000000
_chemical_formula_structural   Pd2Rh2
_chemical_formula_sum   'Pd2 Rh2'
_cell_volume   58.92189380
loop_
 _symmetry_equiv_pos_site_id
 _symmetry_equiv_pos_as_xyz
  1  'x, y, z'
loop_
 _atom_type_symbol
  Pd
  Rh
loop_
 _atom_site_type_symbol
 _atom_site_label
 _atom_site_symmetry_multiplicity
 _atom_site_fract_x
 _atom_site_fract_y
 _atom_site_fract_z
 _atom_site_occupancy
  Pd  Pd0  1  0.00000000  0.00000000  0.99461890  1
  Pd  Pd1  1  0.50000000  0.50000000  0.25538110  1
  Rh  Rh0  1  0.00000000  0.00000000  0.50785175  1
  Rh  Rh1  1  0.50000000  0.50000000  0.74214825  1
