# generated using pymatgen
data_1824_Cu3Ga
_symmetry_space_group_name_H-M   'Imm2'
_cell_length_a   4.97137355
_cell_length_b   4.97137355
_cell_length_c   4.97137355
_cell_angle_alpha   148.26240810
_cell_angle_beta   127.11422357
_cell_angle_gamma   63.00761139
_chemical_formula_structural   Cu3Ga
_chemical_formula_sum   'Cu3 Ga1'
_cell_volume   51.02113577
loop_
 _symmetry_equiv_pos_site_id
 _symmetry_equiv_pos_as_xyz
  1  'x, y, z'
loop_
 _atom_type_symbol
  Cu
  Ga
loop_
 _atom_site_type_symbol
 _atom_site_label
 _atom_site_symmetry_multiplicity
 _atom_site_fract_x
 _atom_site_fract_y
 _atom_site_fract_z
 _atom_site_occupancy
  Cu  Cu0  1  0.00725533  0.99862873  0.00862659  1
  Cu  Cu1  1  0.50999786  0.50137127  0.00862659  1
  Cu  Cu2  1  0.90987607  0.25000000  0.65987607  1
  Ga  Ga0  1  0.40620408  0.75000000  0.65620408  1
