# generated using pymatgen
data_1826_FeGa2
_symmetry_space_group_name_H-M   'I4/mmm'
_cell_length_a   4.69566626
_cell_length_b   4.69566626
_cell_length_c   4.69566626
_cell_angle_alpha   141.54689301
_cell_angle_beta   141.54689301
_cell_angle_gamma   55.51192021
_chemical_formula_structural   FeGa2
_chemical_formula_sum   'Fe1 Ga2'
_cell_volume   39.74292589
loop_
 _symmetry_equiv_pos_site_id
 _symmetry_equiv_pos_as_xyz
  1  'x, y, z'
loop_
 _atom_type_symbol
  Fe
  Ga
loop_
 _atom_site_type_symbol
 _atom_site_label
 _atom_site_symmetry_multiplicity
 _atom_site_fract_x
 _atom_site_fract_y
 _atom_site_fract_z
 _atom_site_occupancy
  Fe  Fe0  1  0.00000000  0.00000000  0.00000000  1
  Ga  Ga0  1  0.65779572  0.65779572  0.00000000  1
  Ga  Ga1  1  0.34220428  0.34220428  0.00000000  1
