# generated using pymatgen
data_1828_Ir4Sn16
_symmetry_space_group_name_H-M   'I4_1/acd'
_cell_length_a   12.44641984
_cell_length_b   12.44641984
_cell_length_c   12.44641984
_cell_angle_alpha   150.17595741
_cell_angle_beta   150.17595741
_cell_angle_gamma   42.68317796
_chemical_formula_structural   Ir4Sn16
_chemical_formula_sum   'Ir4 Sn16'
_cell_volume   475.70952949
loop_
 _symmetry_equiv_pos_site_id
 _symmetry_equiv_pos_as_xyz
  1  'x, y, z'
loop_
 _atom_type_symbol
  Ir
  Sn
loop_
 _atom_site_type_symbol
 _atom_site_label
 _atom_site_symmetry_multiplicity
 _atom_site_fract_x
 _atom_site_fract_y
 _atom_site_fract_z
 _atom_site_occupancy
  Ir  Ir0  1  0.12500000  0.87500000  0.25000000  1
  Ir  Ir1  1  0.37500000  0.62500000  0.75000000  1
  Ir  Ir2  1  0.87500000  0.12500000  0.75000000  1
  Ir  Ir3  1  0.62500000  0.37500000  0.25000000  1
  Sn  Sn0  1  0.51398159  0.76452319  0.40256194  1
  Sn  Sn1  1  0.86196125  0.11141965  0.09743806  1
  Sn  Sn2  1  0.61141965  0.01398159  0.24945840  1
  Sn  Sn3  1  0.26452319  0.36196125  0.25054160  1
  Sn  Sn4  1  0.63803875  0.73547681  0.24945840  1
  Sn  Sn5  1  0.98601841  0.38858035  0.25054160  1
  Sn  Sn6  1  0.23547681  0.48601841  0.09743806  1
  Sn  Sn7  1  0.88858035  0.13803875  0.40256194  1
  Sn  Sn8  1  0.48601841  0.23547681  0.59743806  1
  Sn  Sn9  1  0.13803875  0.88858035  0.90256194  1
  Sn  Sn10  1  0.38858035  0.98601841  0.75054160  1
  Sn  Sn11  1  0.73547681  0.63803875  0.74945840  1
  Sn  Sn12  1  0.36196125  0.26452319  0.75054160  1
  Sn  Sn13  1  0.01398159  0.61141965  0.74945840  1
  Sn  Sn14  1  0.76452319  0.51398159  0.90256194  1
  Sn  Sn15  1  0.11141965  0.86196125  0.59743806  1
