# generated using pymatgen
data_1830_SnP3
_symmetry_space_group_name_H-M   'Im -3 m'
_cell_length_a   4.59023434
_cell_length_b   4.59023434
_cell_length_c   4.59023434
_cell_angle_alpha   109.46776412
_cell_angle_beta   109.46776412
_cell_angle_gamma   109.46776434
_chemical_formula_structural   SnP3
_chemical_formula_sum   'P3 Sn1'
_cell_volume   74.46260879
loop_
 _symmetry_equiv_pos_site_id
 _symmetry_equiv_pos_as_xyz
  1  'x, y, z'
loop_
 _atom_type_symbol
  P
  Sn
loop_
 _atom_site_type_symbol
 _atom_site_label
 _atom_site_symmetry_multiplicity
 _atom_site_fract_x
 _atom_site_fract_y
 _atom_site_fract_z
 _atom_site_occupancy
  P  P0  1  0.00000000  0.00000000  0.00000000  1
  P  P1  1  0.50000000  0.00000000  0.50000000  1
  P  P2  1  0.50000000  0.50000000  1.00000000  1
  Sn  Sn0  1  0.00000000  0.50000000  0.50000000  1
