# generated using pymatgen
data_1833_Ga5Br
_symmetry_space_group_name_H-M   'Cmmm'
_cell_length_a   7.80454685
_cell_length_b   7.80454685
_cell_length_c   4.06477764
_cell_angle_alpha   90.00000000
_cell_angle_beta   90.00000000
_cell_angle_gamma   147.43041659
_chemical_formula_structural   Ga5Br
_chemical_formula_sum   'Br1 Ga5'
_cell_volume   133.28322625
loop_
 _symmetry_equiv_pos_site_id
 _symmetry_equiv_pos_as_xyz
  1  'x, y, z'
loop_
 _atom_type_symbol
  Br
  Ga
loop_
 _atom_site_type_symbol
 _atom_site_label
 _atom_site_symmetry_multiplicity
 _atom_site_fract_x
 _atom_site_fract_y
 _atom_site_fract_z
 _atom_site_occupancy
  Br  Br0  1  0.97253143  0.02746857  0.00000000  1
  Ga  Ga0  1  0.78841363  0.21158637  0.50000000  1
  Ga  Ga1  1  0.65171252  0.34828748  0.00000000  1
  Ga  Ga2  1  0.47142605  0.52857395  0.50000000  1
  Ga  Ga3  1  0.29304100  0.70695900  0.00000000  1
  Ga  Ga4  1  0.15620872  0.84379128  0.50000000  1
