# generated using pymatgen
data_1835_Ca3Pb
_symmetry_space_group_name_H-M   'Immm'
_cell_length_a   7.11559454
_cell_length_b   7.11559454
_cell_length_c   5.84601984
_cell_angle_alpha   65.81798592
_cell_angle_beta   65.81798592
_cell_angle_gamma   32.31037480
_chemical_formula_structural   Ca3Pb
_chemical_formula_sum   'Ca3 Pb1'
_cell_volume   143.10092280
loop_
 _symmetry_equiv_pos_site_id
 _symmetry_equiv_pos_as_xyz
  1  'x, y, z'
loop_
 _atom_type_symbol
  Ca
  Pb
loop_
 _atom_site_type_symbol
 _atom_site_label
 _atom_site_symmetry_multiplicity
 _atom_site_fract_x
 _atom_site_fract_y
 _atom_site_fract_z
 _atom_site_occupancy
  Ca  Ca0  1  0.50000000  0.50000000  0.50000000  1
  Ca  Ca1  1  0.71220930  0.71220930  0.78772650  1
  Ca  Ca2  1  0.28779070  0.28779070  0.21227350  1
  Pb  Pb0  1  0.00000000  0.00000000  0.00000000  1
