# generated using pymatgen
data_1836_Mo2W2
_symmetry_space_group_name_H-M   'I4_1/amd'
_cell_length_a   4.02119366
_cell_length_b   4.92656782
_cell_length_c   4.02119366
_cell_angle_alpha   65.91364274
_cell_angle_beta   90.00000000
_cell_angle_gamma   114.08635726
_chemical_formula_structural   Mo2W2
_chemical_formula_sum   'Mo2 W2'
_cell_volume   65.05500307
loop_
 _symmetry_equiv_pos_site_id
 _symmetry_equiv_pos_as_xyz
  1  'x, y, z'
loop_
 _atom_type_symbol
  Mo
  W
loop_
 _atom_site_type_symbol
 _atom_site_label
 _atom_site_symmetry_multiplicity
 _atom_site_fract_x
 _atom_site_fract_y
 _atom_site_fract_z
 _atom_site_occupancy
  Mo  Mo0  1  0.00000000  0.00000000  0.00000000  1
  Mo  Mo1  1  0.75000000  0.50000000  0.75000000  1
  W  W0  1  0.25000000  0.50000000  0.25000000  1
  W  W1  1  0.50000000  0.00000000  0.50000000  1
