# generated using pymatgen
data_1841_Pd2Sn8
_symmetry_space_group_name_H-M   'Ccce'
_cell_length_a   6.67734997
_cell_length_b   6.67734997
_cell_length_c   6.49803099
_cell_angle_alpha   90.00000000
_cell_angle_beta   90.00000000
_cell_angle_gamma   121.37529867
_chemical_formula_structural   Pd2Sn8
_chemical_formula_sum   'Pd2 Sn8'
_cell_volume   247.36238509
loop_
 _symmetry_equiv_pos_site_id
 _symmetry_equiv_pos_as_xyz
  1  'x, y, z'
loop_
 _atom_type_symbol
  Pd
  Sn
loop_
 _atom_site_type_symbol
 _atom_site_label
 _atom_site_symmetry_multiplicity
 _atom_site_fract_x
 _atom_site_fract_y
 _atom_site_fract_z
 _atom_site_occupancy
  Pd  Pd0  1  0.25000000  0.75000000  0.75000000  1
  Pd  Pd1  1  0.75000000  0.25000000  0.25000000  1
  Sn  Sn0  1  0.45512611  0.20678069  0.92013867  1
  Sn  Sn1  1  0.04487389  0.29321931  0.92013867  1
  Sn  Sn2  1  0.79321931  0.54487389  0.57986133  1
  Sn  Sn3  1  0.70678069  0.95512611  0.57986133  1
  Sn  Sn4  1  0.54487389  0.79321931  0.07986133  1
  Sn  Sn5  1  0.95512611  0.70678069  0.07986133  1
  Sn  Sn6  1  0.20678069  0.45512611  0.42013867  1
  Sn  Sn7  1  0.29321931  0.04487389  0.42013867  1
