# generated using pymatgen
data_1846_VW2
_symmetry_space_group_name_H-M   'Immm'
_cell_length_a   6.42034285
_cell_length_b   4.88169854
_cell_length_c   3.02281819
_cell_angle_alpha   90.00000000
_cell_angle_beta   90.00000000
_cell_angle_gamma   90.00000000
_chemical_formula_structural   VW2
_chemical_formula_sum   'V2 W4'
_cell_volume   94.74170673
loop_
 _symmetry_equiv_pos_site_id
 _symmetry_equiv_pos_as_xyz
  1  'x, y, z'
loop_
 _atom_type_symbol
  V
  W
loop_
 _atom_site_type_symbol
 _atom_site_label
 _atom_site_symmetry_multiplicity
 _atom_site_fract_x
 _atom_site_fract_y
 _atom_site_fract_z
 _atom_site_occupancy
  V  V0  1  0.00000000  0.00000000  0.00000000  1
  V  V1  1  0.50000000  0.50000000  0.50000000  1
  W  W0  1  0.19097199  0.49527908  0.00000000  1
  W  W1  1  0.30902801  0.99527908  0.50000000  1
  W  W2  1  0.69097199  0.00472092  0.50000000  1
  W  W3  1  0.80902801  0.50472092  0.00000000  1
