# generated using pymatgen
data_1850_Au5Nb
_symmetry_space_group_name_H-M   'Cmmm'
_cell_length_a   4.38473254
_cell_length_b   6.44393009
_cell_length_c   4.09224961
_cell_angle_alpha   90.00000000
_cell_angle_beta   90.00000000
_cell_angle_gamma   70.10960478
_chemical_formula_structural   Au5Nb
_chemical_formula_sum   'Au5 Nb1'
_cell_volume   108.72848668
loop_
 _symmetry_equiv_pos_site_id
 _symmetry_equiv_pos_as_xyz
  1  'x, y, z'
loop_
 _atom_type_symbol
  Au
  Nb
loop_
 _atom_site_type_symbol
 _atom_site_label
 _atom_site_symmetry_multiplicity
 _atom_site_fract_x
 _atom_site_fract_y
 _atom_site_fract_z
 _atom_site_occupancy
  Au  Au0  1  0.19099780  0.61800440  0.50000000  1
  Au  Au1  1  0.36505160  0.26989680  0.00000000  1
  Au  Au2  1  0.52772233  0.94455533  0.50000000  1
  Au  Au3  1  0.69041742  0.61916515  0.00000000  1
  Au  Au4  1  0.86457616  0.27084769  0.50000000  1
  Nb  Nb0  1  0.02790135  0.94419729  0.00000000  1
