# generated using pymatgen
data_1851_GaNa2
_symmetry_space_group_name_H-M   'I4/mmm'
_cell_length_a   5.92578723
_cell_length_b   5.92578723
_cell_length_c   5.92578723
_cell_angle_alpha   142.24169336
_cell_angle_beta   142.24169336
_cell_angle_gamma   54.46489775
_chemical_formula_structural   GaNa2
_chemical_formula_sum   'Ga1 Na2'
_cell_volume   77.48574043
loop_
 _symmetry_equiv_pos_site_id
 _symmetry_equiv_pos_as_xyz
  1  'x, y, z'
loop_
 _atom_type_symbol
  Ga
  Na
loop_
 _atom_site_type_symbol
 _atom_site_label
 _atom_site_symmetry_multiplicity
 _atom_site_fract_x
 _atom_site_fract_y
 _atom_site_fract_z
 _atom_site_occupancy
  Ga  Ga0  1  0.00000000  0.00000000  0.00000000  1
  Na  Na0  1  0.65780861  0.65780861  0.00000000  1
  Na  Na1  1  0.34219139  0.34219139  0.00000000  1
