# generated using pymatgen
data_1857_CuMo
_symmetry_space_group_name_H-M   'P-6m2'
_cell_length_a   2.67591598
_cell_length_b   2.67585371
_cell_length_c   4.52506371
_cell_angle_alpha   90.00000000
_cell_angle_beta   90.00000000
_cell_angle_gamma   120.00078211
_chemical_formula_structural   CuMo
_chemical_formula_sum   'Cu1 Mo1'
_cell_volume   28.05994062
loop_
 _symmetry_equiv_pos_site_id
 _symmetry_equiv_pos_as_xyz
  1  'x, y, z'
loop_
 _atom_type_symbol
  Cu
  Mo
loop_
 _atom_site_type_symbol
 _atom_site_label
 _atom_site_symmetry_multiplicity
 _atom_site_fract_x
 _atom_site_fract_y
 _atom_site_fract_z
 _atom_site_occupancy
  Cu  Cu0  1  0.66666851  0.33333603  0.75000000  1
  Mo  Mo0  1  0.33333149  0.66666397  0.25000000  1
