# generated using pymatgen
data_1861_AsBr8
_symmetry_space_group_name_H-M   'I4/mmm'
_cell_length_a   7.00589941
_cell_length_b   7.00589941
_cell_length_c   7.00589941
_cell_angle_alpha   102.65825236
_cell_angle_beta   102.65825236
_cell_angle_gamma   124.17547650
_chemical_formula_structural   AsBr8
_chemical_formula_sum   'As1 Br8'
_cell_volume   251.39328122
loop_
 _symmetry_equiv_pos_site_id
 _symmetry_equiv_pos_as_xyz
  1  'x, y, z'
loop_
 _atom_type_symbol
  As
  Br
loop_
 _atom_site_type_symbol
 _atom_site_label
 _atom_site_symmetry_multiplicity
 _atom_site_fract_x
 _atom_site_fract_y
 _atom_site_fract_z
 _atom_site_occupancy
  As  As0  1  0.00000000  0.00000000  0.00000000  1
  Br  Br0  1  0.33426545  0.66573455  0.00000000  1
  Br  Br1  1  0.66573455  0.33426545  0.00000000  1
  Br  Br2  1  1.00000000  0.29942561  0.29942561  1
  Br  Br3  1  0.66573455  0.66573455  0.33146909  1
  Br  Br4  1  0.29942561  0.00000000  0.29942561  1
  Br  Br5  1  0.33426545  0.33426545  0.66853091  1
  Br  Br6  1  0.00000000  0.70057439  0.70057439  1
  Br  Br7  1  0.70057439  1.00000000  0.70057439  1
