# generated using pymatgen
data_1862_GaMn2
_symmetry_space_group_name_H-M   'I4/mmm'
_cell_length_a   5.87334136
_cell_length_b   5.87334136
_cell_length_c   5.87334136
_cell_angle_alpha   153.74823158
_cell_angle_beta   153.74823158
_cell_angle_gamma   37.46564837
_chemical_formula_structural   GaMn2
_chemical_formula_sum   'Ga1 Mn2'
_cell_volume   39.58027353
loop_
 _symmetry_equiv_pos_site_id
 _symmetry_equiv_pos_as_xyz
  1  'x, y, z'
loop_
 _atom_type_symbol
  Ga
  Mn
loop_
 _atom_site_type_symbol
 _atom_site_label
 _atom_site_symmetry_multiplicity
 _atom_site_fract_x
 _atom_site_fract_y
 _atom_site_fract_z
 _atom_site_occupancy
  Ga  Ga0  1  0.00000000  0.00000000  0.00000000  1
  Mn  Mn0  1  0.33230882  0.33230882  0.00000000  1
  Mn  Mn1  1  0.66769118  0.66769118  0.00000000  1
