# generated using pymatgen
data_1867_Cr6Sr2
_symmetry_space_group_name_H-M   'I4/mmm'
_cell_length_a   6.90626777
_cell_length_b   6.90626777
_cell_length_c   6.90626777
_cell_angle_alpha   141.88158667
_cell_angle_beta   141.88158667
_cell_angle_gamma   55.00720904
_chemical_formula_structural   Cr6Sr2
_chemical_formula_sum   'Cr6 Sr2'
_cell_volume   124.62096091
loop_
 _symmetry_equiv_pos_site_id
 _symmetry_equiv_pos_as_xyz
  1  'x, y, z'
loop_
 _atom_type_symbol
  Cr
  Sr
loop_
 _atom_site_type_symbol
 _atom_site_label
 _atom_site_symmetry_multiplicity
 _atom_site_fract_x
 _atom_site_fract_y
 _atom_site_fract_z
 _atom_site_occupancy
  Cr  Cr0  1  0.50000000  0.00000000  0.50000000  1
  Cr  Cr1  1  0.00000000  0.50000000  0.50000000  1
  Cr  Cr2  1  0.25000000  0.75000000  0.50000000  1
  Cr  Cr3  1  0.75000000  0.25000000  0.50000000  1
  Cr  Cr4  1  0.89332446  0.89332446  0.00000000  1
  Cr  Cr5  1  0.10667554  0.10667554  0.00000000  1
  Sr  Sr0  1  0.63493309  0.63493309  0.00000000  1
  Sr  Sr1  1  0.36506691  0.36506691  0.00000000  1
