# generated using pymatgen
data_1868_FeSr
_symmetry_space_group_name_H-M   'P-6m2'
_cell_length_a   3.64838700
_cell_length_b   3.64874854
_cell_length_c   4.83010400
_cell_angle_alpha   90.00000000
_cell_angle_beta   90.00000000
_cell_angle_gamma   119.99673138
_chemical_formula_structural   FeSr
_chemical_formula_sum   'Fe1 Sr1'
_cell_volume   55.68602920
loop_
 _symmetry_equiv_pos_site_id
 _symmetry_equiv_pos_as_xyz
  1  'x, y, z'
loop_
 _atom_type_symbol
  Fe
  Sr
loop_
 _atom_site_type_symbol
 _atom_site_label
 _atom_site_symmetry_multiplicity
 _atom_site_fract_x
 _atom_site_fract_y
 _atom_site_fract_z
 _atom_site_occupancy
  Fe  Fe0  1  0.66665930  0.33331505  0.74999838  1
  Sr  Sr0  1  0.33334204  0.66668391  0.24999877  1
