# generated using pymatgen
data_1869_AlIn3
_symmetry_space_group_name_H-M   'Imm2'
_cell_length_a   6.26382637
_cell_length_b   6.26382637
_cell_length_c   6.26382637
_cell_angle_alpha   149.49451253
_cell_angle_beta   126.28642119
_cell_angle_gamma   63.03779130
_chemical_formula_structural   AlIn3
_chemical_formula_sum   'Al1 In3'
_cell_volume   99.59794721
loop_
 _symmetry_equiv_pos_site_id
 _symmetry_equiv_pos_as_xyz
  1  'x, y, z'
loop_
 _atom_type_symbol
  Al
  In
loop_
 _atom_site_type_symbol
 _atom_site_label
 _atom_site_symmetry_multiplicity
 _atom_site_fract_x
 _atom_site_fract_y
 _atom_site_fract_z
 _atom_site_occupancy
  Al  Al0  1  0.00377261  0.00000000  0.00377261  1
  In  In0  1  0.45917773  0.50000000  0.95917773  1
  In  In1  1  0.07726591  0.72540775  0.35185816  1
  In  In2  1  0.62645042  0.27459225  0.35185816  1
