# generated using pymatgen
data_1875_Al2Sb4
_symmetry_space_group_name_H-M   'Pnnm'
_cell_length_a   3.91169751
_cell_length_b   5.90063366
_cell_length_c   6.99856268
_cell_angle_alpha   90.00000000
_cell_angle_beta   90.00000000
_cell_angle_gamma   90.00000000
_chemical_formula_structural   Al2Sb4
_chemical_formula_sum   'Al2 Sb4'
_cell_volume   161.53728247
loop_
 _symmetry_equiv_pos_site_id
 _symmetry_equiv_pos_as_xyz
  1  'x, y, z'
loop_
 _atom_type_symbol
  Al
  Sb
loop_
 _atom_site_type_symbol
 _atom_site_label
 _atom_site_symmetry_multiplicity
 _atom_site_fract_x
 _atom_site_fract_y
 _atom_site_fract_z
 _atom_site_occupancy
  Al  Al0  1  0.00000000  0.00000000  0.00000000  1
  Al  Al1  1  0.50000000  0.50000000  0.50000000  1
  Sb  Sb0  1  0.00000000  0.18572713  0.62925891  1
  Sb  Sb1  1  0.00000000  0.81427287  0.37074109  1
  Sb  Sb2  1  0.50000000  0.68572713  0.87074109  1
  Sb  Sb3  1  0.50000000  0.31427287  0.12925891  1
