# generated using pymatgen
data_1876_Ca6Cr2
_symmetry_space_group_name_H-M   'I4/mmm'
_cell_length_a   10.70851636
_cell_length_b   10.70851636
_cell_length_c   10.70851636
_cell_angle_alpha   153.65320844
_cell_angle_beta   153.65320844
_cell_angle_gamma   37.60385591
_chemical_formula_structural   Ca6Cr2
_chemical_formula_sum   'Ca6 Cr2'
_cell_volume   241.49939066
loop_
 _symmetry_equiv_pos_site_id
 _symmetry_equiv_pos_as_xyz
  1  'x, y, z'
loop_
 _atom_type_symbol
  Ca
  Cr
loop_
 _atom_site_type_symbol
 _atom_site_label
 _atom_site_symmetry_multiplicity
 _atom_site_fract_x
 _atom_site_fract_y
 _atom_site_fract_z
 _atom_site_occupancy
  Ca  Ca0  1  0.00000000  0.50000000  0.50000000  1
  Ca  Ca1  1  0.50000000  0.00000000  0.50000000  1
  Ca  Ca2  1  0.25000000  0.75000000  0.50000000  1
  Ca  Ca3  1  0.75000000  0.25000000  0.50000000  1
  Ca  Ca4  1  0.12492891  0.12492891  0.00000000  1
  Ca  Ca5  1  0.87507109  0.87507109  0.00000000  1
  Cr  Cr0  1  0.37122131  0.37122131  0.00000000  1
  Cr  Cr1  1  0.62877869  0.62877869  0.00000000  1
