# generated using pymatgen
data_1886_CrSr2
_symmetry_space_group_name_H-M   'I4/mmm'
_cell_length_a   7.57435398
_cell_length_b   7.57435398
_cell_length_c   7.57435398
_cell_angle_alpha   148.41743624
_cell_angle_beta   148.41743624
_cell_angle_gamma   45.26952191
_chemical_formula_structural   CrSr2
_chemical_formula_sum   'Cr1 Sr2'
_cell_volume   118.80991683
loop_
 _symmetry_equiv_pos_site_id
 _symmetry_equiv_pos_as_xyz
  1  'x, y, z'
loop_
 _atom_type_symbol
  Cr
  Sr
loop_
 _atom_site_type_symbol
 _atom_site_label
 _atom_site_symmetry_multiplicity
 _atom_site_fract_x
 _atom_site_fract_y
 _atom_site_fract_z
 _atom_site_occupancy
  Cr  Cr0  1  0.00000000  0.00000000  0.00000000  1
  Sr  Sr0  1  0.64019566  0.64019566  0.00000000  1
  Sr  Sr1  1  0.35980434  0.35980434  0.00000000  1
