# generated using pymatgen
data_1888_AuGa4
_symmetry_space_group_name_H-M   'I4/mmm'
_cell_length_a   7.12894868
_cell_length_b   7.12894868
_cell_length_c   7.12894868
_cell_angle_alpha   148.81706586
_cell_angle_beta   148.81706586
_cell_angle_gamma   44.68064560
_chemical_formula_structural   AuGa4
_chemical_formula_sum   'Au1 Ga4'
_cell_volume   96.83522165
loop_
 _symmetry_equiv_pos_site_id
 _symmetry_equiv_pos_as_xyz
  1  'x, y, z'
loop_
 _atom_type_symbol
  Au
  Ga
loop_
 _atom_site_type_symbol
 _atom_site_label
 _atom_site_symmetry_multiplicity
 _atom_site_fract_x
 _atom_site_fract_y
 _atom_site_fract_z
 _atom_site_occupancy
  Au  Au0  1  0.00000000  0.00000000  0.00000000  1
  Ga  Ga0  1  0.25000000  0.75000000  0.50000000  1
  Ga  Ga1  1  0.75000000  0.25000000  0.50000000  1
  Ga  Ga2  1  0.59567850  0.59567850  0.00000000  1
  Ga  Ga3  1  0.40432150  0.40432150  0.00000000  1
