# generated using pymatgen
data_1889_Ca3As
_symmetry_space_group_name_H-M   'P4mm'
_cell_length_a   4.71461928
_cell_length_b   4.74234950
_cell_length_c   5.50513448
_cell_angle_alpha   90.00000000
_cell_angle_beta   90.00000000
_cell_angle_gamma   90.00000000
_chemical_formula_structural   Ca3As
_chemical_formula_sum   'As1 Ca3'
_cell_volume   123.08584673
loop_
 _symmetry_equiv_pos_site_id
 _symmetry_equiv_pos_as_xyz
  1  'x, y, z'
loop_
 _atom_type_symbol
  As
  Ca
loop_
 _atom_site_type_symbol
 _atom_site_label
 _atom_site_symmetry_multiplicity
 _atom_site_fract_x
 _atom_site_fract_y
 _atom_site_fract_z
 _atom_site_occupancy
  As  As0  1  0.00000000  0.00000000  0.99888365  1
  Ca  Ca0  1  0.50000000  0.00000000  0.39019618  1
  Ca  Ca1  1  0.50000000  0.50000000  0.90101328  1
  Ca  Ca2  1  0.00000000  0.50000000  0.37657356  1
