# generated using pymatgen
data_1892_Cu2Ge2
_symmetry_space_group_name_H-M   'P4/nmm'
_cell_length_a   3.15714588
_cell_length_b   3.15714588
_cell_length_c   6.17873696
_cell_angle_alpha   90.00000000
_cell_angle_beta   90.00000000
_cell_angle_gamma   90.00000000
_chemical_formula_structural   Cu2Ge2
_chemical_formula_sum   'Cu2 Ge2'
_cell_volume   61.58699383
loop_
 _symmetry_equiv_pos_site_id
 _symmetry_equiv_pos_as_xyz
  1  'x, y, z'
loop_
 _atom_type_symbol
  Cu
  Ge
loop_
 _atom_site_type_symbol
 _atom_site_label
 _atom_site_symmetry_multiplicity
 _atom_site_fract_x
 _atom_site_fract_y
 _atom_site_fract_z
 _atom_site_occupancy
  Cu  Cu0  1  0.00000000  0.00000000  0.01945302  1
  Cu  Cu1  1  0.50000000  0.50000000  0.23054698  1
  Ge  Ge0  1  0.00000000  0.00000000  0.46253827  1
  Ge  Ge1  1  0.50000000  0.50000000  0.78746173  1
