# generated using pymatgen
data_1898_Cr8Sn
_symmetry_space_group_name_H-M   'I4/mmm'
_cell_length_a   5.63687615
_cell_length_b   5.63687615
_cell_length_c   5.63687615
_cell_angle_alpha   97.95678533
_cell_angle_beta   97.95678533
_cell_angle_gamma   136.31497343
_chemical_formula_structural   Cr8Sn
_chemical_formula_sum   'Cr8 Sn1'
_cell_volume   114.82780594
loop_
 _symmetry_equiv_pos_site_id
 _symmetry_equiv_pos_as_xyz
  1  'x, y, z'
loop_
 _atom_type_symbol
  Cr
  Sn
loop_
 _atom_site_type_symbol
 _atom_site_label
 _atom_site_symmetry_multiplicity
 _atom_site_fract_x
 _atom_site_fract_y
 _atom_site_fract_z
 _atom_site_occupancy
  Cr  Cr0  1  0.32896099  0.67103901  0.00000000  1
  Cr  Cr1  1  0.67103901  0.32896099  0.00000000  1
  Cr  Cr2  1  0.00000000  0.34744495  0.34744495  1
  Cr  Cr3  1  0.67103901  0.67103901  0.34207802  1
  Cr  Cr4  1  0.34744495  1.00000000  0.34744495  1
  Cr  Cr5  1  0.32896099  0.32896099  0.65792198  1
  Cr  Cr6  1  0.00000000  0.65255505  0.65255505  1
  Cr  Cr7  1  0.65255505  1.00000000  0.65255505  1
  Sn  Sn0  1  0.00000000  0.00000000  0.00000000  1
