# generated using pymatgen
data_1899_Cr4Rh
_symmetry_space_group_name_H-M   'I4/mmm'
_cell_length_a   5.55483818
_cell_length_b   5.55483818
_cell_length_c   5.55483818
_cell_angle_alpha   141.38177223
_cell_angle_beta   141.38177223
_cell_angle_gamma   55.76116031
_chemical_formula_structural   Cr4Rh
_chemical_formula_sum   'Cr4 Rh1'
_cell_volume   66.26198278
loop_
 _symmetry_equiv_pos_site_id
 _symmetry_equiv_pos_as_xyz
  1  'x, y, z'
loop_
 _atom_type_symbol
  Cr
  Rh
loop_
 _atom_site_type_symbol
 _atom_site_label
 _atom_site_symmetry_multiplicity
 _atom_site_fract_x
 _atom_site_fract_y
 _atom_site_fract_z
 _atom_site_occupancy
  Cr  Cr0  1  0.25000000  0.75000000  0.50000000  1
  Cr  Cr1  1  0.38742124  0.38742124  0.00000000  1
  Cr  Cr2  1  0.61257876  0.61257876  0.00000000  1
  Cr  Cr3  1  0.75000000  0.25000000  0.50000000  1
  Rh  Rh0  1  0.00000000  0.00000000  0.00000000  1
