# generated using pymatgen
data_1904_In4Mn4
_symmetry_space_group_name_H-M   'Pnma'
_cell_length_a   4.64709560
_cell_length_b   5.66931395
_cell_length_c   5.48167432
_cell_angle_alpha   90.00000000
_cell_angle_beta   90.00000000
_cell_angle_gamma   90.00000000
_chemical_formula_structural   In4Mn4
_chemical_formula_sum   'In4 Mn4'
_cell_volume   144.41933601
loop_
 _symmetry_equiv_pos_site_id
 _symmetry_equiv_pos_as_xyz
  1  'x, y, z'
loop_
 _atom_type_symbol
  In
  Mn
loop_
 _atom_site_type_symbol
 _atom_site_label
 _atom_site_symmetry_multiplicity
 _atom_site_fract_x
 _atom_site_fract_y
 _atom_site_fract_z
 _atom_site_occupancy
  In  In0  1  0.75000000  0.87195425  0.12485184  1
  In  In1  1  0.25000000  0.37195425  0.37514816  1
  In  In2  1  0.75000000  0.62804575  0.62485184  1
  In  In3  1  0.25000000  0.12804575  0.87514816  1
  Mn  Mn0  1  0.75000000  0.37368941  0.09142867  1
  Mn  Mn1  1  0.25000000  0.87368941  0.40857133  1
  Mn  Mn2  1  0.75000000  0.12631059  0.59142867  1
  Mn  Mn3  1  0.25000000  0.62631059  0.90857133  1
