# generated using pymatgen
data_1907_VBr2
_symmetry_space_group_name_H-M   'I4/mmm'
_cell_length_a   7.34862583
_cell_length_b   7.34862583
_cell_length_c   7.34862583
_cell_angle_alpha   153.53536773
_cell_angle_beta   153.53748029
_cell_angle_gamma   37.77375544
_chemical_formula_structural   VBr2
_chemical_formula_sum   'Br2 V1'
_cell_volume   78.68648087
loop_
 _symmetry_equiv_pos_site_id
 _symmetry_equiv_pos_as_xyz
  1  'x, y, z'
loop_
 _atom_type_symbol
  Br
  V
loop_
 _atom_site_type_symbol
 _atom_site_label
 _atom_site_symmetry_multiplicity
 _atom_site_fract_x
 _atom_site_fract_y
 _atom_site_fract_z
 _atom_site_occupancy
  Br  Br0  1  0.61406214  0.61406214  0.00000000  1
  Br  Br1  1  0.38593786  0.38593786  0.00000000  1
  V  V0  1  0.00000000  0.00000000  0.00000000  1
