# generated using pymatgen
data_1911_InTh
_symmetry_space_group_name_H-M   'P4/mmm'
_cell_length_a   3.52952377
_cell_length_b   4.99150037
_cell_length_c   4.96418735
_cell_angle_alpha   90.00000000
_cell_angle_beta   90.00000000
_cell_angle_gamma   45.00000000
_chemical_formula_structural   InTh
_chemical_formula_sum   'In1 Th1'
_cell_volume   61.84155254
loop_
 _symmetry_equiv_pos_site_id
 _symmetry_equiv_pos_as_xyz
  1  'x, y, z'
loop_
 _atom_type_symbol
  In
  Th
loop_
 _atom_site_type_symbol
 _atom_site_label
 _atom_site_symmetry_multiplicity
 _atom_site_fract_x
 _atom_site_fract_y
 _atom_site_fract_z
 _atom_site_occupancy
  In  In0  1  0.00000000  0.00000000  0.00000000  1
  Th  Th0  1  0.00000000  0.50000000  0.50000000  1
