# generated using pymatgen
data_1912_AcV
_symmetry_space_group_name_H-M   'Pm -3 m'
_cell_length_a   3.85655920
_cell_length_b   5.45399613
_cell_length_c   3.89206533
_cell_angle_alpha   90.00000000
_cell_angle_beta   90.00000000
_cell_angle_gamma   45.00000000
_chemical_formula_structural   AcV
_chemical_formula_sum   'Ac1 V1'
_cell_volume   57.88685449
loop_
 _symmetry_equiv_pos_site_id
 _symmetry_equiv_pos_as_xyz
  1  'x, y, z'
loop_
 _atom_type_symbol
  Ac
  V
loop_
 _atom_site_type_symbol
 _atom_site_label
 _atom_site_symmetry_multiplicity
 _atom_site_fract_x
 _atom_site_fract_y
 _atom_site_fract_z
 _atom_site_occupancy
  Ac  Ac0  1  0.00000000  0.00000000  0.00000000  1
  V  V0  1  0.99999998  0.49999946  0.50000090  1
