# generated using pymatgen
data_1913_CrSn2
_symmetry_space_group_name_H-M   'I4/mmm'
_cell_length_a   6.71341135
_cell_length_b   6.71341135
_cell_length_c   6.71341135
_cell_angle_alpha   152.17364292
_cell_angle_beta   152.17364292
_cell_angle_gamma   39.75978018
_chemical_formula_structural   CrSn2
_chemical_formula_sum   'Cr1 Sn2'
_cell_volume   65.80519202
loop_
 _symmetry_equiv_pos_site_id
 _symmetry_equiv_pos_as_xyz
  1  'x, y, z'
loop_
 _atom_type_symbol
  Cr
  Sn
loop_
 _atom_site_type_symbol
 _atom_site_label
 _atom_site_symmetry_multiplicity
 _atom_site_fract_x
 _atom_site_fract_y
 _atom_site_fract_z
 _atom_site_occupancy
  Cr  Cr0  1  0.00000000  0.00000000  0.00000000  1
  Sn  Sn0  1  0.64318297  0.64318297  0.00000000  1
  Sn  Sn1  1  0.35681703  0.35681703  0.00000000  1
