# generated using pymatgen
data_1924_AuNp
_symmetry_space_group_name_H-M   'F-43m'
_cell_length_a   4.28857038
_cell_length_b   4.28857038
_cell_length_c   4.28857038
_cell_angle_alpha   60.00000000
_cell_angle_beta   60.00000000
_cell_angle_gamma   60.00000000
_chemical_formula_structural   AuNp
_chemical_formula_sum   'Au1 Np1'
_cell_volume   55.77282315
loop_
 _symmetry_equiv_pos_site_id
 _symmetry_equiv_pos_as_xyz
  1  'x, y, z'
loop_
 _atom_type_symbol
  Au
  Np
loop_
 _atom_site_type_symbol
 _atom_site_label
 _atom_site_symmetry_multiplicity
 _atom_site_fract_x
 _atom_site_fract_y
 _atom_site_fract_z
 _atom_site_occupancy
  Au  Au0  1  0.00000000  0.00000000  0.00000000  1
  Np  Np0  1  0.25000000  0.25000000  0.25000000  1
