# generated using pymatgen
data_1925_Cu44Ni2
_symmetry_space_group_name_H-M   'Fd -3 m'
_cell_length_a   9.27296106
_cell_length_b   9.27296106
_cell_length_c   9.27296106
_cell_angle_alpha   60.00000000
_cell_angle_beta   60.00000000
_cell_angle_gamma   60.00000000
_chemical_formula_structural   Cu44Ni2
_chemical_formula_sum   'Cu44 Ni2'
_cell_volume   563.81978402
loop_
 _symmetry_equiv_pos_site_id
 _symmetry_equiv_pos_as_xyz
  1  'x, y, z'
loop_
 _atom_type_symbol
  Cu
  Ni
loop_
 _atom_site_type_symbol
 _atom_site_label
 _atom_site_symmetry_multiplicity
 _atom_site_fract_x
 _atom_site_fract_y
 _atom_site_fract_z
 _atom_site_occupancy
  Cu  Cu0  1  0.32126978  0.55833240  0.79912804  1
  Cu  Cu1  1  0.32126978  0.29912804  0.05833240  1
  Cu  Cu2  1  0.05833240  0.82126978  0.32126978  1
  Cu  Cu3  1  0.79912804  0.82126978  0.32126978  1
  Cu  Cu4  1  0.32126978  0.55833240  0.32126978  1
  Cu  Cu5  1  0.32126978  0.29912804  0.32126978  1
  Cu  Cu6  1  0.79912804  0.82126978  0.05833240  1
  Cu  Cu7  1  0.05833240  0.82126978  0.79912804  1
  Cu  Cu8  1  0.79912804  0.55833240  0.32126978  1
  Cu  Cu9  1  0.05833240  0.29912804  0.32126978  1
  Cu  Cu10  1  0.32126978  0.82126978  0.79912804  1
  Cu  Cu11  1  0.32126978  0.82126978  0.05833240  1
  Cu  Cu12  1  0.67873022  0.70087196  0.94166760  1
  Cu  Cu13  1  0.67873022  0.44166760  0.20087196  1
  Cu  Cu14  1  0.94166760  0.17873022  0.67873022  1
  Cu  Cu15  1  0.20087196  0.17873022  0.67873022  1
  Cu  Cu16  1  0.67873022  0.17873022  0.94166760  1
  Cu  Cu17  1  0.67873022  0.17873022  0.20087196  1
  Cu  Cu18  1  0.20087196  0.44166760  0.67873022  1
  Cu  Cu19  1  0.94166760  0.70087196  0.67873022  1
  Cu  Cu20  1  0.20087196  0.17873022  0.94166760  1
  Cu  Cu21  1  0.94166760  0.17873022  0.20087196  1
  Cu  Cu22  1  0.67873022  0.70087196  0.67873022  1
  Cu  Cu23  1  0.67873022  0.44166760  0.67873022  1
  Cu  Cu24  1  0.48717785  0.26282215  0.48717785  1
  Cu  Cu25  1  0.76282215  0.98717785  0.76282215  1
  Cu  Cu26  1  0.76282215  0.26282215  0.48717785  1
  Cu  Cu27  1  0.48717785  0.98717785  0.76282215  1
  Cu  Cu28  1  0.48717785  0.26282215  0.76282215  1
  Cu  Cu29  1  0.76282215  0.98717785  0.48717785  1
  Cu  Cu30  1  0.51282215  0.01282215  0.23717785  1
  Cu  Cu31  1  0.23717785  0.73717785  0.51282215  1
  Cu  Cu32  1  0.23717785  0.01282215  0.23717785  1
  Cu  Cu33  1  0.51282215  0.73717785  0.51282215  1
  Cu  Cu34  1  0.51282215  0.73717785  0.23717785  1
  Cu  Cu35  1  0.23717785  0.01282215  0.51282215  1
  Cu  Cu36  1  0.00000000  0.00000000  0.00000000  1
  Cu  Cu37  1  0.00000000  0.50000000  0.50000000  1
  Cu  Cu38  1  0.50000000  0.50000000  0.00000000  1
  Cu  Cu39  1  0.00000000  0.50000000  0.00000000  1
  Cu  Cu40  1  0.50000000  0.50000000  0.50000000  1
  Cu  Cu41  1  0.50000000  0.00000000  0.00000000  1
  Cu  Cu42  1  0.00000000  0.00000000  0.50000000  1
  Cu  Cu43  1  0.50000000  0.00000000  0.50000000  1
  Ni  Ni0  1  0.12500000  0.62500000  0.12500000  1
  Ni  Ni1  1  0.87500000  0.37500000  0.87500000  1
