# generated using pymatgen
data_1926_BaAs4
_symmetry_space_group_name_H-M   'I4/m'
_cell_length_a   5.82911614
_cell_length_b   5.82911614
_cell_length_c   5.82911614
_cell_angle_alpha   99.63337349
_cell_angle_beta   99.63337349
_cell_angle_gamma   131.70641320
_chemical_formula_structural   BaAs4
_chemical_formula_sum   'As4 Ba1'
_cell_volume   134.92985780
loop_
 _symmetry_equiv_pos_site_id
 _symmetry_equiv_pos_as_xyz
  1  'x, y, z'
loop_
 _atom_type_symbol
  As
  Ba
loop_
 _atom_site_type_symbol
 _atom_site_label
 _atom_site_symmetry_multiplicity
 _atom_site_fract_x
 _atom_site_fract_y
 _atom_site_fract_z
 _atom_site_occupancy
  As  As0  1  0.85391221  0.43234219  0.28625439  1
  As  As1  1  0.43234219  0.14608779  0.57842998  1
  As  As2  1  0.14608779  0.56765781  0.71374561  1
  As  As3  1  0.56765781  0.85391221  0.42157002  1
  Ba  Ba0  1  0.00000000  0.00000000  0.00000000  1
