# generated using pymatgen
data_1927_Cu6Pt6
_symmetry_space_group_name_H-M   'P-1'
_cell_length_a   6.06768141
_cell_length_b   5.39586604
_cell_length_c   5.43193993
_cell_angle_alpha   89.81264646
_cell_angle_beta   102.90992278
_cell_angle_gamma   76.26994119
_chemical_formula_structural   Cu6Pt6
_chemical_formula_sum   'Cu6 Pt6'
_cell_volume   168.09703039
loop_
 _symmetry_equiv_pos_site_id
 _symmetry_equiv_pos_as_xyz
  1  'x, y, z'
loop_
 _atom_type_symbol
  Cu
  Pt
loop_
 _atom_site_type_symbol
 _atom_site_label
 _atom_site_symmetry_multiplicity
 _atom_site_fract_x
 _atom_site_fract_y
 _atom_site_fract_z
 _atom_site_occupancy
  Cu  Cu0  1  0.99823436  0.00695713  0.99941381  1
  Cu  Cu1  1  0.32977116  0.16759400  0.32852808  1
  Cu  Cu2  1  0.67022884  0.33240600  0.67147192  1
  Cu  Cu3  1  0.00176564  0.49304287  0.00058619  1
  Cu  Cu4  1  0.33141264  0.16920039  0.83682653  1
  Cu  Cu5  1  0.66858736  0.33079961  0.16317347  1
  Pt  Pt0  1  0.33460580  0.65725690  0.32880012  1
  Pt  Pt1  1  0.66539420  0.84274310  0.67119988  1
  Pt  Pt2  1  0.99531594  0.00664125  0.49928392  1
  Pt  Pt3  1  0.00468406  0.49335875  0.50071608  1
  Pt  Pt4  1  0.33938542  0.65870163  0.83723995  1
  Pt  Pt5  1  0.66061458  0.84129837  0.16276005  1
