# generated using pymatgen
data_1928_K2Na2
_symmetry_space_group_name_H-M   'I4_1/amd'
_cell_length_a   7.25055019
_cell_length_b   7.25055019
_cell_length_c   7.25055019
_cell_angle_alpha   131.93331589
_cell_angle_beta   131.93331589
_cell_angle_gamma   70.33436759
_chemical_formula_structural   K2Na2
_chemical_formula_sum   'K2 Na2'
_cell_volume   206.73228389
loop_
 _symmetry_equiv_pos_site_id
 _symmetry_equiv_pos_as_xyz
  1  'x, y, z'
loop_
 _atom_type_symbol
  K
  Na
loop_
 _atom_site_type_symbol
 _atom_site_label
 _atom_site_symmetry_multiplicity
 _atom_site_fract_x
 _atom_site_fract_y
 _atom_site_fract_z
 _atom_site_occupancy
  K  K0  1  0.00000000  0.00000000  0.00000000  1
  K  K1  1  0.25000000  0.75000000  0.50000000  1
  Na  Na0  1  0.50000000  0.50000000  0.00000000  1
  Na  Na1  1  0.75000000  0.25000000  0.50000000  1
