# generated using pymatgen
data_1934_BaV5
_symmetry_space_group_name_H-M   'P4/mmm'
_cell_length_a   3.10702220
_cell_length_b   3.10702220
_cell_length_c   11.13933434
_cell_angle_alpha   90.00000000
_cell_angle_beta   90.00000000
_cell_angle_gamma   90.00000000
_chemical_formula_structural   BaV5
_chemical_formula_sum   'Ba1 V5'
_cell_volume   107.53453263
loop_
 _symmetry_equiv_pos_site_id
 _symmetry_equiv_pos_as_xyz
  1  'x, y, z'
loop_
 _atom_type_symbol
  Ba
  V
loop_
 _atom_site_type_symbol
 _atom_site_label
 _atom_site_symmetry_multiplicity
 _atom_site_fract_x
 _atom_site_fract_y
 _atom_site_fract_z
 _atom_site_occupancy
  Ba  Ba0  1  0.50000000  0.50000000  0.00000000  1
  V  V0  1  0.00000000  0.00000000  0.74364569  1
  V  V1  1  0.00000000  0.00000000  0.25635431  1
  V  V2  1  0.50000000  0.50000000  0.63309077  1
  V  V3  1  0.50000000  0.50000000  0.36690923  1
  V  V4  1  0.00000000  0.00000000  0.50000000  1
