# generated using pymatgen
data_1937_Fe8Pb4
_symmetry_space_group_name_H-M   'Pa -3'
_cell_length_a   6.22695565
_cell_length_b   6.22695565
_cell_length_c   6.22695565
_cell_angle_alpha   90.00000000
_cell_angle_beta   90.00000000
_cell_angle_gamma   90.00000000
_chemical_formula_structural   Fe8Pb4
_chemical_formula_sum   'Fe8 Pb4'
_cell_volume   241.45006004
loop_
 _symmetry_equiv_pos_site_id
 _symmetry_equiv_pos_as_xyz
  1  'x, y, z'
loop_
 _atom_type_symbol
  Fe
  Pb
loop_
 _atom_site_type_symbol
 _atom_site_label
 _atom_site_symmetry_multiplicity
 _atom_site_fract_x
 _atom_site_fract_y
 _atom_site_fract_z
 _atom_site_occupancy
  Fe  Fe0  1  0.61107419  0.61107419  0.38892581  1
  Fe  Fe1  1  0.38892581  0.38892581  0.61107419  1
  Fe  Fe2  1  0.11107419  0.88892581  0.61107419  1
  Fe  Fe3  1  0.88892581  0.11107419  0.38892581  1
  Fe  Fe4  1  0.38892581  0.11107419  0.11107419  1
  Fe  Fe5  1  0.61107419  0.88892581  0.88892581  1
  Fe  Fe6  1  0.88892581  0.38892581  0.88892581  1
  Fe  Fe7  1  0.11107419  0.61107419  0.11107419  1
  Pb  Pb0  1  0.00000000  0.00000000  0.00000000  1
  Pb  Pb1  1  0.50000000  0.50000000  0.00000000  1
  Pb  Pb2  1  0.50000000  0.00000000  0.50000000  1
  Pb  Pb3  1  0.00000000  0.50000000  0.50000000  1
