# generated using pymatgen
data_1939_CaCr3
_symmetry_space_group_name_H-M   'Imm2'
_cell_length_a   5.62628189
_cell_length_b   5.62628189
_cell_length_c   5.62628189
_cell_angle_alpha   154.54715131
_cell_angle_beta   126.93799544
_cell_angle_gamma   59.74232635
_chemical_formula_structural   CaCr3
_chemical_formula_sum   'Ca1 Cr3'
_cell_volume   60.78867464
loop_
 _symmetry_equiv_pos_site_id
 _symmetry_equiv_pos_as_xyz
  1  'x, y, z'
loop_
 _atom_type_symbol
  Ca
  Cr
loop_
 _atom_site_type_symbol
 _atom_site_label
 _atom_site_symmetry_multiplicity
 _atom_site_fract_x
 _atom_site_fract_y
 _atom_site_fract_z
 _atom_site_occupancy
  Ca  Ca0  1  0.03890558  0.00000000  0.03890558  1
  Cr  Cr0  1  0.53572494  0.50000000  0.03572494  1
  Cr  Cr1  1  0.84760012  0.21824871  0.62935141  1
  Cr  Cr2  1  0.41110270  0.78175129  0.62935141  1
