# generated using pymatgen
data_1941_Nb3P4
_symmetry_space_group_name_H-M   'I4/mmm'
_cell_length_a   10.06103663
_cell_length_b   10.06103663
_cell_length_c   10.06103663
_cell_angle_alpha   161.17729450
_cell_angle_beta   161.17729450
_cell_angle_gamma   26.74185068
_chemical_formula_structural   Nb3P4
_chemical_formula_sum   'Nb3 P4'
_cell_volume   105.97485485
loop_
 _symmetry_equiv_pos_site_id
 _symmetry_equiv_pos_as_xyz
  1  'x, y, z'
loop_
 _atom_type_symbol
  Nb
  P
loop_
 _atom_site_type_symbol
 _atom_site_label
 _atom_site_symmetry_multiplicity
 _atom_site_fract_x
 _atom_site_fract_y
 _atom_site_fract_z
 _atom_site_occupancy
  Nb  Nb0  1  0.00000000  0.00000000  0.00000000  1
  Nb  Nb1  1  0.69945469  0.69945469  0.00000000  1
  Nb  Nb2  1  0.30054531  0.30054531  0.00000000  1
  P  P0  1  0.84963645  0.84963645  0.00000000  1
  P  P1  1  0.15036355  0.15036355  0.00000000  1
  P  P2  1  0.56727490  0.56727490  0.00000000  1
  P  P3  1  0.43272510  0.43272510  0.00000000  1
