# generated using pymatgen
data_1943_Al4Ga8
_symmetry_space_group_name_H-M   'Pnma'
_cell_length_a   4.49770714
_cell_length_b   5.83844294
_cell_length_c   8.45890330
_cell_angle_alpha   90.00000000
_cell_angle_beta   90.00000000
_cell_angle_gamma   90.00000000
_chemical_formula_structural   Al4Ga8
_chemical_formula_sum   'Al4 Ga8'
_cell_volume   222.12747206
loop_
 _symmetry_equiv_pos_site_id
 _symmetry_equiv_pos_as_xyz
  1  'x, y, z'
loop_
 _atom_type_symbol
  Al
  Ga
loop_
 _atom_site_type_symbol
 _atom_site_label
 _atom_site_symmetry_multiplicity
 _atom_site_fract_x
 _atom_site_fract_y
 _atom_site_fract_z
 _atom_site_occupancy
  Al  Al0  1  0.25000000  0.69903809  0.38945360  1
  Al  Al1  1  0.75000000  0.80096191  0.88945360  1
  Al  Al2  1  0.25000000  0.19903809  0.11054640  1
  Al  Al3  1  0.75000000  0.30096191  0.61054640  1
  Ga  Ga0  1  0.25000000  0.04369089  0.78197760  1
  Ga  Ga1  1  0.75000000  0.45630911  0.28197760  1
  Ga  Ga2  1  0.25000000  0.54369089  0.71802240  1
  Ga  Ga3  1  0.75000000  0.95630911  0.21802240  1
  Ga  Ga4  1  0.25000000  0.17425619  0.43745152  1
  Ga  Ga5  1  0.75000000  0.32574381  0.93745152  1
  Ga  Ga6  1  0.25000000  0.67425619  0.06254848  1
  Ga  Ga7  1  0.75000000  0.82574381  0.56254848  1
