# generated using pymatgen
data_1946_CrP
_symmetry_space_group_name_H-M   'Fm -3 m'
_cell_length_a   3.45849886
_cell_length_b   3.45849886
_cell_length_c   3.45849886
_cell_angle_alpha   60.00000000
_cell_angle_beta   60.00000000
_cell_angle_gamma   60.00000000
_chemical_formula_structural   CrP
_chemical_formula_sum   'Cr1 P1'
_cell_volume   29.25148472
loop_
 _symmetry_equiv_pos_site_id
 _symmetry_equiv_pos_as_xyz
  1  'x, y, z'
loop_
 _atom_type_symbol
  Cr
  P
loop_
 _atom_site_type_symbol
 _atom_site_label
 _atom_site_symmetry_multiplicity
 _atom_site_fract_x
 _atom_site_fract_y
 _atom_site_fract_z
 _atom_site_occupancy
  Cr  Cr0  1  0.00000000  0.00000000  0.00000000  1
  P  P0  1  0.50000045  0.50000045  0.50000045  1
