# generated using pymatgen
data_194_Al12Pb12
_symmetry_space_group_name_H-M   'Pbcm'
_cell_length_a   6.33262541
_cell_length_b   9.21635451
_cell_length_c   10.41570732
_cell_angle_alpha   90.00000000
_cell_angle_beta   90.00000000
_cell_angle_gamma   90.00000000
_chemical_formula_structural   Al12Pb12
_chemical_formula_sum   'Al12 Pb12'
_cell_volume   607.89943352
loop_
 _symmetry_equiv_pos_site_id
 _symmetry_equiv_pos_as_xyz
  1  'x, y, z'
loop_
 _atom_type_symbol
  Al
  Pb
loop_
 _atom_site_type_symbol
 _atom_site_label
 _atom_site_symmetry_multiplicity
 _atom_site_fract_x
 _atom_site_fract_y
 _atom_site_fract_z
 _atom_site_occupancy
  Al  Al0  1  0.25000000  0.10593200  0.13387846  1
  Al  Al1  1  0.75000000  0.89406800  0.86612154  1
  Al  Al2  1  0.25000000  0.60593200  0.86612154  1
  Al  Al3  1  0.75000000  0.39406800  0.13387846  1
  Al  Al4  1  0.25000000  0.53248248  0.45246177  1
  Al  Al5  1  0.75000000  0.46751752  0.54753823  1
  Al  Al6  1  0.25000000  0.03248248  0.54753823  1
  Al  Al7  1  0.75000000  0.96751752  0.45246177  1
  Al  Al8  1  0.00000000  0.75000000  0.04379562  1
  Al  Al9  1  0.50000000  0.25000000  0.95620438  1
  Al  Al10  1  0.00000000  0.25000000  0.95620438  1
  Al  Al11  1  0.50000000  0.75000000  0.04379562  1
  Pb  Pb0  1  0.25000000  0.47267954  0.14686264  1
  Pb  Pb1  1  0.75000000  0.52732046  0.85313736  1
  Pb  Pb2  1  0.25000000  0.97267954  0.85313736  1
  Pb  Pb3  1  0.75000000  0.02732046  0.14686264  1
  Pb  Pb4  1  0.25000000  0.83254898  0.29953096  1
  Pb  Pb5  1  0.75000000  0.16745102  0.70046904  1
  Pb  Pb6  1  0.25000000  0.33254898  0.70046904  1
  Pb  Pb7  1  0.75000000  0.66745102  0.29953096  1
  Pb  Pb8  1  0.00000000  0.75000000  0.62579290  1
  Pb  Pb9  1  0.50000000  0.25000000  0.37420710  1
  Pb  Pb10  1  0.00000000  0.25000000  0.37420710  1
  Pb  Pb11  1  0.50000000  0.75000000  0.62579290  1
