# generated using pymatgen
data_1950_Ta10Ge6
_symmetry_space_group_name_H-M   'I4/mcm'
_cell_length_a   5.19569121
_cell_length_b   7.63773236
_cell_length_c   7.63773236
_cell_angle_alpha   96.64345524
_cell_angle_beta   70.11501635
_cell_angle_gamma   109.88498365
_chemical_formula_structural   Ta10Ge6
_chemical_formula_sum   'Ge6 Ta10'
_cell_volume   268.02572565
loop_
 _symmetry_equiv_pos_site_id
 _symmetry_equiv_pos_as_xyz
  1  'x, y, z'
loop_
 _atom_type_symbol
  Ge
  Ta
loop_
 _atom_site_type_symbol
 _atom_site_label
 _atom_site_symmetry_multiplicity
 _atom_site_fract_x
 _atom_site_fract_y
 _atom_site_fract_z
 _atom_site_occupancy
  Ge  Ge0  1  0.16711602  0.50000000  0.16576796  1
  Ge  Ge1  1  0.33288398  0.16576796  0.50000000  1
  Ge  Ge2  1  0.66711602  0.83423204  0.50000000  1
  Ge  Ge3  1  0.83288398  0.50000000  0.83423204  1
  Ge  Ge4  1  0.25000000  0.00000000  0.00000000  1
  Ge  Ge5  1  0.75000000  0.00000000  0.00000000  1
  Ta  Ta0  1  0.57439761  0.29815789  0.14936266  1
  Ta  Ta1  1  0.77623973  0.70184211  0.14936266  1
  Ta  Ta2  1  0.92560239  0.14936266  0.29815789  1
  Ta  Ta3  1  0.27623973  0.85063734  0.29815789  1
  Ta  Ta4  1  0.25000000  0.50000000  0.50000000  1
  Ta  Ta5  1  0.75000000  0.50000000  0.50000000  1
  Ta  Ta6  1  0.72376027  0.14936266  0.70184211  1
  Ta  Ta7  1  0.07439761  0.85063734  0.70184211  1
  Ta  Ta8  1  0.22376027  0.29815789  0.85063734  1
  Ta  Ta9  1  0.42560239  0.70184211  0.85063734  1
