# generated using pymatgen
data_1952_Ba2V2
_symmetry_space_group_name_H-M   'I4_1/amd'
_cell_length_a   5.40710816
_cell_length_b   5.40710816
_cell_length_c   5.40710816
_cell_angle_alpha   121.94724279
_cell_angle_beta   121.94724279
_cell_angle_gamma   86.65911906
_chemical_formula_structural   Ba2V2
_chemical_formula_sum   'Ba2 V2'
_cell_volume   108.29370154
loop_
 _symmetry_equiv_pos_site_id
 _symmetry_equiv_pos_as_xyz
  1  'x, y, z'
loop_
 _atom_type_symbol
  Ba
  V
loop_
 _atom_site_type_symbol
 _atom_site_label
 _atom_site_symmetry_multiplicity
 _atom_site_fract_x
 _atom_site_fract_y
 _atom_site_fract_z
 _atom_site_occupancy
  Ba  Ba0  1  0.00000000  0.00000000  0.00000000  1
  Ba  Ba1  1  0.25000000  0.75000000  0.50000000  1
  V  V0  1  0.50000000  0.50000000  0.00000000  1
  V  V1  1  0.75000000  0.25000000  0.50000000  1
