# generated using pymatgen
data_1959_Pb5Sb3
_symmetry_space_group_name_H-M   'Cmmm'
_cell_length_a   6.95475630
_cell_length_b   6.95475630
_cell_length_c   5.41708280
_cell_angle_alpha   90.00000000
_cell_angle_beta   90.00000000
_cell_angle_gamma   108.17277587
_chemical_formula_structural   Pb5Sb3
_chemical_formula_sum   'Pb5 Sb3'
_cell_volume   248.94759031
loop_
 _symmetry_equiv_pos_site_id
 _symmetry_equiv_pos_as_xyz
  1  'x, y, z'
loop_
 _atom_type_symbol
  Pb
  Sb
loop_
 _atom_site_type_symbol
 _atom_site_label
 _atom_site_symmetry_multiplicity
 _atom_site_fract_x
 _atom_site_fract_y
 _atom_site_fract_z
 _atom_site_occupancy
  Pb  Pb0  1  0.00000000  0.00000000  0.00000000  1
  Pb  Pb1  1  0.00000000  0.50000000  0.00000000  1
  Pb  Pb2  1  0.50000000  1.00000000  0.00000000  1
  Pb  Pb3  1  0.27765337  0.27765337  0.50000000  1
  Pb  Pb4  1  0.72234663  0.72234663  0.50000000  1
  Sb  Sb0  1  0.50000000  0.50000000  0.00000000  1
  Sb  Sb1  1  0.79621507  0.20378493  0.50000000  1
  Sb  Sb2  1  0.20378493  0.79621507  0.50000000  1
