# generated using pymatgen
data_195_Ni6Ge18
_symmetry_space_group_name_H-M   'Pmmn'
_cell_length_a   4.70237501
_cell_length_b   5.97551490
_cell_length_c   14.00452998
_cell_angle_alpha   90.00000000
_cell_angle_beta   90.00000000
_cell_angle_gamma   90.00000000
_chemical_formula_structural   Ni6Ge18
_chemical_formula_sum   'Ge18 Ni6'
_cell_volume   393.51485554
loop_
 _symmetry_equiv_pos_site_id
 _symmetry_equiv_pos_as_xyz
  1  'x, y, z'
loop_
 _atom_type_symbol
  Ge
  Ni
loop_
 _atom_site_type_symbol
 _atom_site_label
 _atom_site_symmetry_multiplicity
 _atom_site_fract_x
 _atom_site_fract_y
 _atom_site_fract_z
 _atom_site_occupancy
  Ge  Ge0  1  0.16609479  0.00381958  0.41669142  1
  Ge  Ge1  1  0.16609479  0.00381958  0.08330858  1
  Ge  Ge2  1  0.48754014  0.01721173  0.75000000  1
  Ge  Ge3  1  0.51245986  0.98278827  0.25000000  1
  Ge  Ge4  1  0.83390521  0.99618042  0.91669142  1
  Ge  Ge5  1  0.83390521  0.99618042  0.58330858  1
  Ge  Ge6  1  0.96047145  0.25000000  0.25000000  1
  Ge  Ge7  1  0.33253141  0.25000000  0.92071277  1
  Ge  Ge8  1  0.33253141  0.25000000  0.57928723  1
  Ge  Ge9  1  0.16609479  0.49618042  0.41669142  1
  Ge  Ge10  1  0.16609479  0.49618042  0.08330858  1
  Ge  Ge11  1  0.48754014  0.48278827  0.75000000  1
  Ge  Ge12  1  0.51245986  0.51721173  0.25000000  1
  Ge  Ge13  1  0.83390521  0.50381958  0.91669142  1
  Ge  Ge14  1  0.83390521  0.50381958  0.58330858  1
  Ge  Ge15  1  0.03952855  0.75000000  0.75000000  1
  Ge  Ge16  1  0.66746859  0.75000000  0.42071277  1
  Ge  Ge17  1  0.66746859  0.75000000  0.07928723  1
  Ni  Ni0  1  0.93744060  0.25000000  0.75000000  1
  Ni  Ni1  1  0.68102921  0.25000000  0.41927092  1
  Ni  Ni2  1  0.68102921  0.25000000  0.08072908  1
  Ni  Ni3  1  0.06255940  0.75000000  0.25000000  1
  Ni  Ni4  1  0.31897079  0.75000000  0.91927092  1
  Ni  Ni5  1  0.31897079  0.75000000  0.58072908  1
