# generated using pymatgen
data_1960_AlRh2
_symmetry_space_group_name_H-M   'I4/mmm'
_cell_length_a   5.35045239
_cell_length_b   5.35045239
_cell_length_c   5.35045239
_cell_angle_alpha   148.45910566
_cell_angle_beta   148.45910566
_cell_angle_gamma   45.20808809
_chemical_formula_structural   AlRh2
_chemical_formula_sum   'Al1 Rh2'
_cell_volume   41.77984362
loop_
 _symmetry_equiv_pos_site_id
 _symmetry_equiv_pos_as_xyz
  1  'x, y, z'
loop_
 _atom_type_symbol
  Al
  Rh
loop_
 _atom_site_type_symbol
 _atom_site_label
 _atom_site_symmetry_multiplicity
 _atom_site_fract_x
 _atom_site_fract_y
 _atom_site_fract_z
 _atom_site_occupancy
  Al  Al0  1  0.00000000  0.00000000  0.00000000  1
  Rh  Rh0  1  0.65249924  0.65249924  0.00000000  1
  Rh  Rh1  1  0.34750076  0.34750076  0.00000000  1
