# generated using pymatgen
data_1961_AuSr
_symmetry_space_group_name_H-M   'Pm -3 m'
_cell_length_a   5.44430412
_cell_length_b   3.83499212
_cell_length_c   6.65666154
_cell_angle_alpha   54.96642013
_cell_angle_beta   90.00000000
_cell_angle_gamma   90.00000000
_chemical_formula_structural   AuSr
_chemical_formula_sum   'Au2 Sr2'
_cell_volume   113.80189989
loop_
 _symmetry_equiv_pos_site_id
 _symmetry_equiv_pos_as_xyz
  1  'x, y, z'
loop_
 _atom_type_symbol
  Au
  Sr
loop_
 _atom_site_type_symbol
 _atom_site_label
 _atom_site_symmetry_multiplicity
 _atom_site_fract_x
 _atom_site_fract_y
 _atom_site_fract_z
 _atom_site_occupancy
  Au  Au0  1  0.75000000  0.24748666  0.25365314  1
  Au  Au1  1  0.25000000  0.75251334  0.74634686  1
  Sr  Sr0  1  0.75000000  0.24890239  0.75139089  1
  Sr  Sr1  1  0.25000000  0.75109761  0.24860911  1
