# generated using pymatgen
data_1963_Mo4P4
_symmetry_space_group_name_H-M   'P2_13'
_cell_length_a   4.85680876
_cell_length_b   4.85680876
_cell_length_c   4.85680876
_cell_angle_alpha   90.00000000
_cell_angle_beta   90.00000000
_cell_angle_gamma   90.00000000
_chemical_formula_structural   Mo4P4
_chemical_formula_sum   'Mo4 P4'
_cell_volume   114.56527701
loop_
 _symmetry_equiv_pos_site_id
 _symmetry_equiv_pos_as_xyz
  1  'x, y, z'
loop_
 _atom_type_symbol
  Mo
  P
loop_
 _atom_site_type_symbol
 _atom_site_label
 _atom_site_symmetry_multiplicity
 _atom_site_fract_x
 _atom_site_fract_y
 _atom_site_fract_z
 _atom_site_occupancy
  Mo  Mo0  1  0.62763366  0.62763366  0.37236634  1
  Mo  Mo1  1  0.87236634  0.37236634  0.87236634  1
  Mo  Mo2  1  0.37236634  0.12763366  0.12763366  1
  Mo  Mo3  1  0.12763366  0.87236634  0.62763366  1
  P  P0  1  0.91388325  0.91388325  0.08611675  1
  P  P1  1  0.58611675  0.08611675  0.58611675  1
  P  P2  1  0.08611675  0.41388325  0.41388325  1
  P  P3  1  0.41388325  0.58611675  0.91388325  1
