# generated using pymatgen
data_1968_GaSr
_symmetry_space_group_name_H-M   'P-6m2'
_cell_length_a   4.03102331
_cell_length_b   4.03088329
_cell_length_c   4.74747129
_cell_angle_alpha   90.00000000
_cell_angle_beta   90.00000000
_cell_angle_gamma   120.00115914
_chemical_formula_structural   GaSr
_chemical_formula_sum   'Ga1 Sr1'
_cell_volume   66.80414943
loop_
 _symmetry_equiv_pos_site_id
 _symmetry_equiv_pos_as_xyz
  1  'x, y, z'
loop_
 _atom_type_symbol
  Ga
  Sr
loop_
 _atom_site_type_symbol
 _atom_site_label
 _atom_site_symmetry_multiplicity
 _atom_site_fract_x
 _atom_site_fract_y
 _atom_site_fract_z
 _atom_site_occupancy
  Ga  Ga0  1  0.66666924  0.33333748  0.75000000  1
  Sr  Sr0  1  0.33333076  0.66666252  0.25000000  1
