# generated using pymatgen
data_1971_Ca5Cu3
_symmetry_space_group_name_H-M   'P4/mmm'
_cell_length_a   3.61177777
_cell_length_b   3.61177777
_cell_length_c   16.61137113
_cell_angle_alpha   90.00000000
_cell_angle_beta   90.00000000
_cell_angle_gamma   90.00000000
_chemical_formula_structural   Ca5Cu3
_chemical_formula_sum   'Ca5 Cu3'
_cell_volume   216.69431745
loop_
 _symmetry_equiv_pos_site_id
 _symmetry_equiv_pos_as_xyz
  1  'x, y, z'
loop_
 _atom_type_symbol
  Ca
  Cu
loop_
 _atom_site_type_symbol
 _atom_site_label
 _atom_site_symmetry_multiplicity
 _atom_site_fract_x
 _atom_site_fract_y
 _atom_site_fract_z
 _atom_site_occupancy
  Ca  Ca0  1  0.00000000  0.00000000  0.00000000  1
  Ca  Ca1  1  0.00000000  0.00000000  0.21091735  1
  Ca  Ca2  1  0.00000000  0.00000000  0.78908265  1
  Ca  Ca3  1  0.50000000  0.50000000  0.39559153  1
  Ca  Ca4  1  0.50000000  0.50000000  0.60440847  1
  Cu  Cu0  1  0.00000000  0.00000000  0.50000000  1
  Cu  Cu1  1  0.50000000  0.50000000  0.10735954  1
  Cu  Cu2  1  0.50000000  0.50000000  0.89264046  1
