# generated using pymatgen
data_1972_Ga2Pt2
_symmetry_space_group_name_H-M   'P4/nmm'
_cell_length_a   2.87465463
_cell_length_b   2.87465463
_cell_length_c   7.79985181
_cell_angle_alpha   90.00000000
_cell_angle_beta   90.00000000
_cell_angle_gamma   90.00000000
_chemical_formula_structural   Ga2Pt2
_chemical_formula_sum   'Ga2 Pt2'
_cell_volume   64.45516150
loop_
 _symmetry_equiv_pos_site_id
 _symmetry_equiv_pos_as_xyz
  1  'x, y, z'
loop_
 _atom_type_symbol
  Ga
  Pt
loop_
 _atom_site_type_symbol
 _atom_site_label
 _atom_site_symmetry_multiplicity
 _atom_site_fract_x
 _atom_site_fract_y
 _atom_site_fract_z
 _atom_site_occupancy
  Ga  Ga0  1  0.25000000  0.25000000  0.14384704  1
  Ga  Ga1  1  0.75000000  0.75000000  0.85615296  1
  Pt  Pt0  1  0.25000000  0.25000000  0.63574624  1
  Pt  Pt1  1  0.75000000  0.75000000  0.36425376  1
