# generated using pymatgen
data_1973_Fe3V
_symmetry_space_group_name_H-M   'Cmmm'
_cell_length_a   2.47906282
_cell_length_b   2.47906282
_cell_length_c   8.04130897
_cell_angle_alpha   90.00000000
_cell_angle_beta   90.00000000
_cell_angle_gamma   108.15880054
_chemical_formula_structural   Fe3V
_chemical_formula_sum   'Fe3 V1'
_cell_volume   46.95860562
loop_
 _symmetry_equiv_pos_site_id
 _symmetry_equiv_pos_as_xyz
  1  'x, y, z'
loop_
 _atom_type_symbol
  Fe
  V
loop_
 _atom_site_type_symbol
 _atom_site_label
 _atom_site_symmetry_multiplicity
 _atom_site_fract_x
 _atom_site_fract_y
 _atom_site_fract_z
 _atom_site_occupancy
  Fe  Fe0  1  0.00000000  1.00000000  0.99671482  1
  Fe  Fe1  1  1.00000000  0.00000000  0.50328518  1
  Fe  Fe2  1  0.50000000  0.50000000  0.75000000  1
  V  V0  1  0.50000000  0.50000000  0.25000000  1
