# generated using pymatgen
data_1974_BaAs
_symmetry_space_group_name_H-M   'P4/mmm'
_cell_length_a   6.04270716
_cell_length_b   3.47321419
_cell_length_c   6.96925951
_cell_angle_alpha   60.08150734
_cell_angle_beta   90.00000000
_cell_angle_gamma   90.00000000
_chemical_formula_structural   BaAs
_chemical_formula_sum   'As2 Ba2'
_cell_volume   126.77583893
loop_
 _symmetry_equiv_pos_site_id
 _symmetry_equiv_pos_as_xyz
  1  'x, y, z'
loop_
 _atom_type_symbol
  As
  Ba
loop_
 _atom_site_type_symbol
 _atom_site_label
 _atom_site_symmetry_multiplicity
 _atom_site_fract_x
 _atom_site_fract_y
 _atom_site_fract_z
 _atom_site_occupancy
  As  As0  1  0.75000000  0.24672739  0.24924782  1
  As  As1  1  0.25000000  0.75327261  0.75075218  1
  Ba  Ba0  1  0.75000000  0.24520522  0.74969821  1
  Ba  Ba1  1  0.25000000  0.75479478  0.25030179  1
