# generated using pymatgen
data_1975_Ta2Ge
_symmetry_space_group_name_H-M   'I4/mmm'
_cell_length_a   5.01015256
_cell_length_b   5.01015256
_cell_length_c   4.86698858
_cell_angle_alpha   90.00000000
_cell_angle_beta   90.00000000
_cell_angle_gamma   121.90729693
_chemical_formula_structural   Ta2Ge
_chemical_formula_sum   'Ge2 Ta4'
_cell_volume   103.71008826
loop_
 _symmetry_equiv_pos_site_id
 _symmetry_equiv_pos_as_xyz
  1  'x, y, z'
loop_
 _atom_type_symbol
  Ge
  Ta
loop_
 _atom_site_type_symbol
 _atom_site_label
 _atom_site_symmetry_multiplicity
 _atom_site_fract_x
 _atom_site_fract_y
 _atom_site_fract_z
 _atom_site_occupancy
  Ge  Ge0  1  0.24700134  0.24700134  0.25000000  1
  Ge  Ge1  1  0.75299866  0.75299866  0.75000000  1
  Ta  Ta0  1  0.58347048  0.91496493  0.25000000  1
  Ta  Ta1  1  0.41652952  0.08503507  0.75000000  1
  Ta  Ta2  1  0.91496493  0.58347048  0.25000000  1
  Ta  Ta3  1  0.08503507  0.41652952  0.75000000  1
