# generated using pymatgen
data_198_K8P4
_symmetry_space_group_name_H-M   'Pnma'
_cell_length_a   5.33784647
_cell_length_b   7.25457506
_cell_length_c   10.37208213
_cell_angle_alpha   90.00000000
_cell_angle_beta   90.00000000
_cell_angle_gamma   90.00000000
_chemical_formula_structural   K8P4
_chemical_formula_sum   'K8 P4'
_cell_volume   401.64651567
loop_
 _symmetry_equiv_pos_site_id
 _symmetry_equiv_pos_as_xyz
  1  'x, y, z'
loop_
 _atom_type_symbol
  K
  P
loop_
 _atom_site_type_symbol
 _atom_site_label
 _atom_site_symmetry_multiplicity
 _atom_site_fract_x
 _atom_site_fract_y
 _atom_site_fract_z
 _atom_site_occupancy
  K  K0  1  0.25000000  0.04772231  0.82849390  1
  K  K1  1  0.75000000  0.45227769  0.32849390  1
  K  K2  1  0.25000000  0.54772231  0.67150610  1
  K  K3  1  0.75000000  0.95227769  0.17150610  1
  K  K4  1  0.25000000  0.15471191  0.47182793  1
  K  K5  1  0.75000000  0.34528809  0.97182793  1
  K  K6  1  0.25000000  0.65471191  0.02817207  1
  K  K7  1  0.75000000  0.84528809  0.52817207  1
  P  P0  1  0.25000000  0.74770941  0.32603437  1
  P  P1  1  0.75000000  0.75229059  0.82603437  1
  P  P2  1  0.25000000  0.24770941  0.17396563  1
  P  P3  1  0.75000000  0.25229059  0.67396563  1
