# generated using pymatgen
data_1993_K4Sn2
_symmetry_space_group_name_H-M   'Pnnm'
_cell_length_a   3.65440966
_cell_length_b   9.14308731
_cell_length_c   9.27536761
_cell_angle_alpha   90.00000000
_cell_angle_beta   90.00000000
_cell_angle_gamma   90.00000000
_chemical_formula_structural   K4Sn2
_chemical_formula_sum   'K4 Sn2'
_cell_volume   309.91402340
loop_
 _symmetry_equiv_pos_site_id
 _symmetry_equiv_pos_as_xyz
  1  'x, y, z'
loop_
 _atom_type_symbol
  K
  Sn
loop_
 _atom_site_type_symbol
 _atom_site_label
 _atom_site_symmetry_multiplicity
 _atom_site_fract_x
 _atom_site_fract_y
 _atom_site_fract_z
 _atom_site_occupancy
  K  K0  1  0.00000000  0.22435476  0.69194201  1
  K  K1  1  0.00000000  0.77564524  0.30805799  1
  K  K2  1  0.50000000  0.72435476  0.80805799  1
  K  K3  1  0.50000000  0.27564524  0.19194201  1
  Sn  Sn0  1  0.00000000  0.00000000  0.00000000  1
  Sn  Sn1  1  0.50000000  0.50000000  0.50000000  1
