# generated using pymatgen
data_1994_Ga2As
_symmetry_space_group_name_H-M   'I4/mmm'
_cell_length_a   5.09898547
_cell_length_b   5.09898547
_cell_length_c   5.09898547
_cell_angle_alpha   138.35577311
_cell_angle_beta   138.35577311
_cell_angle_gamma   60.35855026
_chemical_formula_structural   Ga2As
_chemical_formula_sum   'As1 Ga2'
_cell_volume   57.92351761
loop_
 _symmetry_equiv_pos_site_id
 _symmetry_equiv_pos_as_xyz
  1  'x, y, z'
loop_
 _atom_type_symbol
  As
  Ga
loop_
 _atom_site_type_symbol
 _atom_site_label
 _atom_site_symmetry_multiplicity
 _atom_site_fract_x
 _atom_site_fract_y
 _atom_site_fract_z
 _atom_site_occupancy
  As  As0  1  0.00000000  0.00000000  0.00000000  1
  Ga  Ga0  1  0.66344742  0.66344742  0.00000000  1
  Ga  Ga1  1  0.33655258  0.33655258  0.00000000  1
