# generated using pymatgen
data_1998_Cu5Pt5
_symmetry_space_group_name_H-M   'P-1'
_cell_length_a   4.68172306
_cell_length_b   5.47049970
_cell_length_c   5.94067119
_cell_angle_alpha   76.89610799
_cell_angle_beta   75.60050277
_cell_angle_gamma   72.74915501
_chemical_formula_structural   Cu5Pt5
_chemical_formula_sum   'Cu5 Pt5'
_cell_volume   138.80192555
loop_
 _symmetry_equiv_pos_site_id
 _symmetry_equiv_pos_as_xyz
  1  'x, y, z'
loop_
 _atom_type_symbol
  Cu
  Pt
loop_
 _atom_site_type_symbol
 _atom_site_label
 _atom_site_symmetry_multiplicity
 _atom_site_fract_x
 _atom_site_fract_y
 _atom_site_fract_z
 _atom_site_occupancy
  Cu  Cu0  1  0.00351375  0.00084463  0.99975993  1
  Cu  Cu1  1  0.39454512  0.10321814  0.20041640  1
  Cu  Cu2  1  0.20000000  0.30000000  0.60000000  1
  Cu  Cu3  1  0.00545488  0.49678186  0.99958360  1
  Cu  Cu4  1  0.39648625  0.59915537  0.20024007  1
  Pt  Pt0  1  0.79871022  0.20564454  0.38692351  1
  Pt  Pt1  1  0.60128978  0.39435546  0.81307649  1
  Pt  Pt2  1  0.80663187  0.70074259  0.38708686  1
  Pt  Pt3  1  0.20000000  0.80000000  0.60000000  1
  Pt  Pt4  1  0.59336813  0.89925741  0.81291314  1
