# generated using pymatgen
data_2010_Cr4Rh8
_symmetry_space_group_name_H-M   'I4_1/amd'
_cell_length_a   3.77424618
_cell_length_b   3.77424618
_cell_length_c   11.80021625
_cell_angle_alpha   99.20241266
_cell_angle_beta   99.20241266
_cell_angle_gamma   90.00000000
_chemical_formula_structural   Cr4Rh8
_chemical_formula_sum   'Cr4 Rh8'
_cell_volume   163.73784263
loop_
 _symmetry_equiv_pos_site_id
 _symmetry_equiv_pos_as_xyz
  1  'x, y, z'
loop_
 _atom_type_symbol
  Cr
  Rh
loop_
 _atom_site_type_symbol
 _atom_site_label
 _atom_site_symmetry_multiplicity
 _atom_site_fract_x
 _atom_site_fract_y
 _atom_site_fract_z
 _atom_site_occupancy
  Cr  Cr0  1  0.08113394  0.08113394  0.16226787  1
  Cr  Cr1  1  0.91886606  0.91886606  0.83773213  1
  Cr  Cr2  1  0.33113394  0.83113394  0.66226787  1
  Cr  Cr3  1  0.16886606  0.66886606  0.33773213  1
  Rh  Rh0  1  0.25014388  0.25014388  0.50028775  1
  Rh  Rh1  1  0.74985612  0.74985612  0.49971225  1
  Rh  Rh2  1  0.50014388  0.00014388  0.00028775  1
  Rh  Rh3  1  0.99985612  0.49985612  0.99971225  1
  Rh  Rh4  1  0.41573364  0.41573364  0.83146728  1
  Rh  Rh5  1  0.58426636  0.58426636  0.16853272  1
  Rh  Rh6  1  0.66573364  0.16573364  0.33146728  1
  Rh  Rh7  1  0.83426636  0.33426636  0.66853272  1
