# generated using pymatgen
data_2015_AlPd
_symmetry_space_group_name_H-M   'P-6m2'
_cell_length_a   2.91798540
_cell_length_b   2.91796981
_cell_length_c   4.02887089
_cell_angle_alpha   90.00000000
_cell_angle_beta   90.00000000
_cell_angle_gamma   120.00017676
_chemical_formula_structural   AlPd
_chemical_formula_sum   'Al1 Pd1'
_cell_volume   29.70825321
loop_
 _symmetry_equiv_pos_site_id
 _symmetry_equiv_pos_as_xyz
  1  'x, y, z'
loop_
 _atom_type_symbol
  Al
  Pd
loop_
 _atom_site_type_symbol
 _atom_site_label
 _atom_site_symmetry_multiplicity
 _atom_site_fract_x
 _atom_site_fract_y
 _atom_site_fract_z
 _atom_site_occupancy
  Al  Al0  1  0.66666724  0.33333348  0.75000000  1
  Pd  Pd0  1  0.33333276  0.66666652  0.25000000  1
