# generated using pymatgen
data_2022_Cr2As
_symmetry_space_group_name_H-M   'Fmmm'
_cell_length_a   6.00492918
_cell_length_b   5.73912204
_cell_length_c   2.23729304
_cell_angle_alpha   85.79316261
_cell_angle_beta   72.39422136
_cell_angle_gamma   21.81261603
_chemical_formula_structural   Cr2As
_chemical_formula_sum   'As1 Cr2'
_cell_volume   22.13270178
loop_
 _symmetry_equiv_pos_site_id
 _symmetry_equiv_pos_as_xyz
  1  'x, y, z'
loop_
 _atom_type_symbol
  As
  Cr
loop_
 _atom_site_type_symbol
 _atom_site_label
 _atom_site_symmetry_multiplicity
 _atom_site_fract_x
 _atom_site_fract_y
 _atom_site_fract_z
 _atom_site_occupancy
  As  As0  1  0.00000000  0.00000000  0.00000000  1
  Cr  Cr0  1  0.66923068  0.66923068  0.33076932  1
  Cr  Cr1  1  0.33076932  0.33076932  0.66923068  1
