# generated using pymatgen
data_2025_Al2Pb4
_symmetry_space_group_name_H-M   'Pnnm'
_cell_length_a   4.46283959
_cell_length_b   5.59033621
_cell_length_c   7.27561766
_cell_angle_alpha   90.00000000
_cell_angle_beta   90.00000000
_cell_angle_gamma   90.00000000
_chemical_formula_structural   Al2Pb4
_chemical_formula_sum   'Al2 Pb4'
_cell_volume   181.51773896
loop_
 _symmetry_equiv_pos_site_id
 _symmetry_equiv_pos_as_xyz
  1  'x, y, z'
loop_
 _atom_type_symbol
  Al
  Pb
loop_
 _atom_site_type_symbol
 _atom_site_label
 _atom_site_symmetry_multiplicity
 _atom_site_fract_x
 _atom_site_fract_y
 _atom_site_fract_z
 _atom_site_occupancy
  Al  Al0  1  0.00000000  0.00000000  0.00000000  1
  Al  Al1  1  0.50000000  0.50000000  0.50000000  1
  Pb  Pb0  1  0.00000000  0.22146125  0.64057542  1
  Pb  Pb1  1  0.00000000  0.77853875  0.35942458  1
  Pb  Pb2  1  0.50000000  0.72146125  0.85942458  1
  Pb  Pb3  1  0.50000000  0.27853875  0.14057542  1
