# generated using pymatgen
data_2026_Sr8Bi6
_symmetry_space_group_name_H-M   'I-43d'
_cell_length_a   8.78819097
_cell_length_b   8.78819097
_cell_length_c   8.78819097
_cell_angle_alpha   109.47122063
_cell_angle_beta   109.47122063
_cell_angle_gamma   109.47122063
_chemical_formula_structural   Sr8Bi6
_chemical_formula_sum   'Bi6 Sr8'
_cell_volume   522.48829516
loop_
 _symmetry_equiv_pos_site_id
 _symmetry_equiv_pos_as_xyz
  1  'x, y, z'
loop_
 _atom_type_symbol
  Bi
  Sr
loop_
 _atom_site_type_symbol
 _atom_site_label
 _atom_site_symmetry_multiplicity
 _atom_site_fract_x
 _atom_site_fract_y
 _atom_site_fract_z
 _atom_site_occupancy
  Bi  Bi0  1  0.87500000  0.75000000  0.12500000  1
  Bi  Bi1  1  0.12500000  0.37500000  0.25000000  1
  Bi  Bi2  1  0.62500000  0.25000000  0.37500000  1
  Bi  Bi3  1  0.75000000  0.87500000  0.62500000  1
  Bi  Bi4  1  0.37500000  0.12500000  0.75000000  1
  Bi  Bi5  1  0.25000000  0.62500000  0.87500000  1
  Sr  Sr0  1  0.14569743  0.00000000  0.00000000  1
  Sr  Sr1  1  0.64569743  0.00000000  0.00000000  1
  Sr  Sr2  1  0.50000000  0.50000000  0.14569743  1
  Sr  Sr3  1  0.35430257  0.85430257  0.35430257  1
  Sr  Sr4  1  0.00000000  0.14569743  0.50000000  1
  Sr  Sr5  1  0.00000000  0.64569743  0.50000000  1
  Sr  Sr6  1  0.50000000  0.50000000  0.64569743  1
  Sr  Sr7  1  0.85430257  0.35430257  0.85430257  1
