# generated using pymatgen
data_2027_Mn2Mo4
_symmetry_space_group_name_H-M   'I4/mcm'
_cell_length_a   4.93362390
_cell_length_b   4.86968312
_cell_length_c   4.86968312
_cell_angle_alpha   104.86890486
_cell_angle_beta   120.43530833
_cell_angle_gamma   59.56469167
_chemical_formula_structural   Mn2Mo4
_chemical_formula_sum   'Mn2 Mo4'
_cell_volume   86.97314119
loop_
 _symmetry_equiv_pos_site_id
 _symmetry_equiv_pos_as_xyz
  1  'x, y, z'
loop_
 _atom_type_symbol
  Mn
  Mo
loop_
 _atom_site_type_symbol
 _atom_site_label
 _atom_site_symmetry_multiplicity
 _atom_site_fract_x
 _atom_site_fract_y
 _atom_site_fract_z
 _atom_site_occupancy
  Mn  Mn0  1  0.25000000  0.00000000  0.00000000  1
  Mn  Mn1  1  0.75000000  0.00000000  0.00000000  1
  Mo  Mo0  1  0.15880402  0.18239196  0.50000000  1
  Mo  Mo1  1  0.34119598  0.50000000  0.18239196  1
  Mo  Mo2  1  0.65880402  0.50000000  0.81760804  1
  Mo  Mo3  1  0.84119598  0.81760804  0.50000000  1
