# generated using pymatgen
data_2028_Ag3Al4
_symmetry_space_group_name_H-M   'I4/mmm'
_cell_length_a   14.51248070
_cell_length_b   2.88205647
_cell_length_c   2.88205646
_cell_angle_alpha   89.99999998
_cell_angle_beta   95.69859197
_cell_angle_gamma   95.69859193
_chemical_formula_structural   Ag3Al4
_chemical_formula_sum   'Ag3 Al4'
_cell_volume   119.34985433
loop_
 _symmetry_equiv_pos_site_id
 _symmetry_equiv_pos_as_xyz
  1  'x, y, z'
loop_
 _atom_type_symbol
  Ag
  Al
loop_
 _atom_site_type_symbol
 _atom_site_label
 _atom_site_symmetry_multiplicity
 _atom_site_fract_x
 _atom_site_fract_y
 _atom_site_fract_z
 _atom_site_occupancy
  Ag  Ag0  1  0.99393999  0.99697000  0.99697000  1
  Ag  Ag1  1  0.14891715  0.57445857  0.57445857  1
  Ag  Ag2  1  0.57142857  0.28571429  0.28571429  1
  Al  Al0  1  0.28581799  0.14290899  0.14290899  1
  Al  Al1  1  0.42747355  0.71373678  0.71373678  1
  Al  Al2  1  0.71538359  0.85769180  0.85769180  1
  Al  Al3  1  0.85703915  0.42851958  0.42851958  1
