# generated using pymatgen
data_2030_Cr8Rh4
_symmetry_space_group_name_H-M   'I4_1/amd'
_cell_length_a   3.68311047
_cell_length_b   3.68311047
_cell_length_c   11.43928003
_cell_angle_alpha   99.26408769
_cell_angle_beta   99.26408769
_cell_angle_gamma   90.00000000
_chemical_formula_structural   Cr8Rh4
_chemical_formula_sum   'Cr8 Rh4'
_cell_volume   151.10217487
loop_
 _symmetry_equiv_pos_site_id
 _symmetry_equiv_pos_as_xyz
  1  'x, y, z'
loop_
 _atom_type_symbol
  Cr
  Rh
loop_
 _atom_site_type_symbol
 _atom_site_label
 _atom_site_symmetry_multiplicity
 _atom_site_fract_x
 _atom_site_fract_y
 _atom_site_fract_z
 _atom_site_occupancy
  Cr  Cr0  1  0.25173619  0.25173619  0.50347238  1
  Cr  Cr1  1  0.74826381  0.74826381  0.49652762  1
  Cr  Cr2  1  0.50173619  0.00173619  0.00347238  1
  Cr  Cr3  1  0.99826381  0.49826381  0.99652762  1
  Cr  Cr4  1  0.42031050  0.42031050  0.84062098  1
  Cr  Cr5  1  0.57968950  0.57968950  0.15937902  1
  Cr  Cr6  1  0.67031050  0.17031050  0.34062098  1
  Cr  Cr7  1  0.82968950  0.32968950  0.65937902  1
  Rh  Rh0  1  0.08267984  0.08267984  0.16535968  1
  Rh  Rh1  1  0.91732016  0.91732016  0.83464032  1
  Rh  Rh2  1  0.33267984  0.83267984  0.66535968  1
  Rh  Rh3  1  0.16732016  0.66732016  0.33464032  1
