# generated using pymatgen
data_2031_CuYb
_symmetry_space_group_name_H-M   'P-6m2'
_cell_length_a   3.73141800
_cell_length_b   3.73138268
_cell_length_c   3.82932400
_cell_angle_alpha   90.00000000
_cell_angle_beta   90.00000000
_cell_angle_gamma   120.00031309
_chemical_formula_structural   CuYb
_chemical_formula_sum   'Cu1 Yb1'
_cell_volume   46.17374170
loop_
 _symmetry_equiv_pos_site_id
 _symmetry_equiv_pos_as_xyz
  1  'x, y, z'
loop_
 _atom_type_symbol
  Cu
  Yb
loop_
 _atom_site_type_symbol
 _atom_site_label
 _atom_site_symmetry_multiplicity
 _atom_site_fract_x
 _atom_site_fract_y
 _atom_site_fract_z
 _atom_site_occupancy
  Cu  Cu0  1  0.66666946  0.33333826  0.75000176  1
  Yb  Yb0  1  0.33333052  0.66666104  0.25000233  1
