# generated using pymatgen
data_2034_Fe3Ga4
_symmetry_space_group_name_H-M   'I4/mmm'
_cell_length_a   9.77046407
_cell_length_b   9.77046407
_cell_length_c   9.77046407
_cell_angle_alpha   162.26020328
_cell_angle_beta   162.26020328
_cell_angle_gamma   25.19016169
_chemical_formula_structural   Fe3Ga4
_chemical_formula_sum   'Fe3 Ga4'
_cell_volume   86.56583399
loop_
 _symmetry_equiv_pos_site_id
 _symmetry_equiv_pos_as_xyz
  1  'x, y, z'
loop_
 _atom_type_symbol
  Fe
  Ga
loop_
 _atom_site_type_symbol
 _atom_site_label
 _atom_site_symmetry_multiplicity
 _atom_site_fract_x
 _atom_site_fract_y
 _atom_site_fract_z
 _atom_site_occupancy
  Fe  Fe0  1  0.00000000  0.00000000  0.00000000  1
  Fe  Fe1  1  0.71331678  0.71331678  0.00000000  1
  Fe  Fe2  1  0.28668322  0.28668322  0.00000000  1
  Ga  Ga0  1  0.84681506  0.84681506  0.00000000  1
  Ga  Ga1  1  0.15318494  0.15318494  0.00000000  1
  Ga  Ga2  1  0.56955791  0.56955791  0.00000000  1
  Ga  Ga3  1  0.43044209  0.43044209  0.00000000  1
