# generated using pymatgen
data_2035_V2Br4
_symmetry_space_group_name_H-M   'I4_1/amd'
_cell_length_a   11.08409379
_cell_length_b   11.08409379
_cell_length_c   11.08409379
_cell_angle_alpha   162.26380595
_cell_angle_beta   162.26380595
_cell_angle_gamma   25.18500357
_chemical_formula_structural   V2Br4
_chemical_formula_sum   'Br4 V2'
_cell_volume   126.33709384
loop_
 _symmetry_equiv_pos_site_id
 _symmetry_equiv_pos_as_xyz
  1  'x, y, z'
loop_
 _atom_type_symbol
  Br
  V
loop_
 _atom_site_type_symbol
 _atom_site_label
 _atom_site_symmetry_multiplicity
 _atom_site_fract_x
 _atom_site_fract_y
 _atom_site_fract_z
 _atom_site_occupancy
  Br  Br0  1  0.56747151  0.56747151  0.00000000  1
  Br  Br1  1  0.68252849  0.18252849  0.50000000  1
  Br  Br2  1  0.43252849  0.43252849  0.00000000  1
  Br  Br3  1  0.81747151  0.31747151  0.50000000  1
  V  V0  1  0.00000000  0.00000000  0.00000000  1
  V  V1  1  0.25000000  0.75000000  0.50000000  1
