# generated using pymatgen
data_2041_Pt6Sn2
_symmetry_space_group_name_H-M   'I4/mmm'
_cell_length_a   8.64618598
_cell_length_b   8.64618598
_cell_length_c   8.64618598
_cell_angle_alpha   152.89318811
_cell_angle_beta   152.89318811
_cell_angle_gamma   38.71036581
_chemical_formula_structural   Pt6Sn2
_chemical_formula_sum   'Pt6 Sn2'
_cell_volume   133.96869486
loop_
 _symmetry_equiv_pos_site_id
 _symmetry_equiv_pos_as_xyz
  1  'x, y, z'
loop_
 _atom_type_symbol
  Pt
  Sn
loop_
 _atom_site_type_symbol
 _atom_site_label
 _atom_site_symmetry_multiplicity
 _atom_site_fract_x
 _atom_site_fract_y
 _atom_site_fract_z
 _atom_site_occupancy
  Pt  Pt0  1  0.50000000  0.00000000  0.50000000  1
  Pt  Pt1  1  0.00000000  0.50000000  0.50000000  1
  Pt  Pt2  1  0.25000000  0.75000000  0.50000000  1
  Pt  Pt3  1  0.75000000  0.25000000  0.50000000  1
  Pt  Pt4  1  0.87878103  0.87878103  0.00000000  1
  Pt  Pt5  1  0.12121897  0.12121897  0.00000000  1
  Sn  Sn0  1  0.62933301  0.62933301  0.00000000  1
  Sn  Sn1  1  0.37066699  0.37066699  0.00000000  1
