# generated using pymatgen
data_2046_Ba2Pd4
_symmetry_space_group_name_H-M   'Immm'
_cell_length_a   6.77600149
_cell_length_b   6.77600149
_cell_length_c   11.30196816
_cell_angle_alpha   146.34240565
_cell_angle_beta   146.34240565
_cell_angle_gamma   36.52487815
_chemical_formula_structural   Ba2Pd4
_chemical_formula_sum   'Ba2 Pd4'
_cell_volume   148.67189776
loop_
 _symmetry_equiv_pos_site_id
 _symmetry_equiv_pos_as_xyz
  1  'x, y, z'
loop_
 _atom_type_symbol
  Ba
  Pd
loop_
 _atom_site_type_symbol
 _atom_site_label
 _atom_site_symmetry_multiplicity
 _atom_site_fract_x
 _atom_site_fract_y
 _atom_site_fract_z
 _atom_site_occupancy
  Ba  Ba0  1  0.05569350  0.05569350  0.03608032  1
  Ba  Ba1  1  0.05541761  0.05541761  0.68614190  1
  Pd  Pd0  1  0.28065444  0.28065444  0.58561921  1
  Pd  Pd1  1  0.55615118  0.55615118  0.47730788  1
  Pd  Pd2  1  0.55495993  0.55495993  0.24491434  1
  Pd  Pd3  1  0.83045667  0.83045667  0.13660301  1
