# generated using pymatgen
data_2047_Mo2Pb4
_symmetry_space_group_name_H-M   'Cmcm'
_cell_length_a   8.41956987
_cell_length_b   8.41956987
_cell_length_c   5.29603676
_cell_angle_alpha   90.00000000
_cell_angle_beta   90.00000000
_cell_angle_gamma   158.24712343
_chemical_formula_structural   Mo2Pb4
_chemical_formula_sum   'Mo2 Pb4'
_cell_volume   139.13647107
loop_
 _symmetry_equiv_pos_site_id
 _symmetry_equiv_pos_as_xyz
  1  'x, y, z'
loop_
 _atom_type_symbol
  Mo
  Pb
loop_
 _atom_site_type_symbol
 _atom_site_label
 _atom_site_symmetry_multiplicity
 _atom_site_fract_x
 _atom_site_fract_y
 _atom_site_fract_z
 _atom_site_occupancy
  Mo  Mo0  1  0.67169367  0.32830633  0.00000000  1
  Mo  Mo1  1  0.43941744  0.56058256  0.50000000  1
  Pb  Pb0  1  0.00350986  0.99649014  0.00000000  1
  Pb  Pb1  1  0.32729675  0.67270325  0.00000000  1
  Pb  Pb2  1  0.78381436  0.21618564  0.50000000  1
  Pb  Pb3  1  0.10760125  0.89239875  0.50000000  1
