# generated using pymatgen
data_2048_Ca4P2
_symmetry_space_group_name_H-M   'Pnnm'
_cell_length_a   4.21844778
_cell_length_b   6.70496928
_cell_length_c   6.81411038
_cell_angle_alpha   90.00000000
_cell_angle_beta   90.00000000
_cell_angle_gamma   90.00000000
_chemical_formula_structural   Ca4P2
_chemical_formula_sum   'Ca4 P2'
_cell_volume   192.73413279
loop_
 _symmetry_equiv_pos_site_id
 _symmetry_equiv_pos_as_xyz
  1  'x, y, z'
loop_
 _atom_type_symbol
  Ca
  P
loop_
 _atom_site_type_symbol
 _atom_site_label
 _atom_site_symmetry_multiplicity
 _atom_site_fract_x
 _atom_site_fract_y
 _atom_site_fract_z
 _atom_site_occupancy
  Ca  Ca0  1  0.00000000  0.27397445  0.67629029  1
  Ca  Ca1  1  0.00000000  0.72602555  0.32370971  1
  Ca  Ca2  1  0.50000000  0.77397445  0.82370971  1
  Ca  Ca3  1  0.50000000  0.22602555  0.17629029  1
  P  P0  1  0.00000000  0.00000000  0.00000000  1
  P  P1  1  0.50000000  0.50000000  0.50000000  1
