# generated using pymatgen
data_205_Ir3Mn4
_symmetry_space_group_name_H-M   'I4/mmm'
_cell_length_a   2.80046545
_cell_length_b   12.07812709
_cell_length_c   2.80046545
_cell_angle_alpha   83.34265726
_cell_angle_beta   90.00000000
_cell_angle_gamma   96.65734274
_chemical_formula_structural   Ir3Mn4
_chemical_formula_sum   'Ir3 Mn4'
_cell_volume   93.44223229
loop_
 _symmetry_equiv_pos_site_id
 _symmetry_equiv_pos_as_xyz
  1  'x, y, z'
loop_
 _atom_type_symbol
  Ir
  Mn
loop_
 _atom_site_type_symbol
 _atom_site_label
 _atom_site_symmetry_multiplicity
 _atom_site_fract_x
 _atom_site_fract_y
 _atom_site_fract_z
 _atom_site_occupancy
  Ir  Ir0  1  0.00000000  0.00000000  0.00000000  1
  Ir  Ir1  1  0.29230755  0.58461510  0.70769245  1
  Ir  Ir2  1  0.70769245  0.41538490  0.29230755  1
  Mn  Mn0  1  0.13973400  0.27946800  0.86026600  1
  Mn  Mn1  1  0.42898095  0.85796190  0.57101905  1
  Mn  Mn2  1  0.57101905  0.14203810  0.42898095  1
  Mn  Mn3  1  0.86026600  0.72053200  0.13973400  1
