# generated using pymatgen
data_2060_BaFe2
_symmetry_space_group_name_H-M   'I4/mmm'
_cell_length_a   6.10208100
_cell_length_b   6.10208100
_cell_length_c   6.10208100
_cell_angle_alpha   149.32893424
_cell_angle_beta   149.32893424
_cell_angle_gamma   43.92735545
_chemical_formula_structural   BaFe2
_chemical_formula_sum   'Ba1 Fe2'
_cell_volume   58.95594583
loop_
 _symmetry_equiv_pos_site_id
 _symmetry_equiv_pos_as_xyz
  1  'x, y, z'
loop_
 _atom_type_symbol
  Ba
  Fe
loop_
 _atom_site_type_symbol
 _atom_site_label
 _atom_site_symmetry_multiplicity
 _atom_site_fract_x
 _atom_site_fract_y
 _atom_site_fract_z
 _atom_site_occupancy
  Ba  Ba0  1  0.00000000  0.00000000  0.00000000  1
  Fe  Fe0  1  0.73612236  0.73612236  0.00000000  1
  Fe  Fe1  1  0.26387764  0.26387764  0.00000000  1
