# generated using pymatgen
data_2063_Fe2Pt2
_symmetry_space_group_name_H-M   'P4/nmm'
_cell_length_a   2.65039466
_cell_length_b   2.65039466
_cell_length_c   7.40510099
_cell_angle_alpha   90.00000000
_cell_angle_beta   90.00000000
_cell_angle_gamma   90.00000000
_chemical_formula_structural   Fe2Pt2
_chemical_formula_sum   'Fe2 Pt2'
_cell_volume   52.01781226
loop_
 _symmetry_equiv_pos_site_id
 _symmetry_equiv_pos_as_xyz
  1  'x, y, z'
loop_
 _atom_type_symbol
  Fe
  Pt
loop_
 _atom_site_type_symbol
 _atom_site_label
 _atom_site_symmetry_multiplicity
 _atom_site_fract_x
 _atom_site_fract_y
 _atom_site_fract_z
 _atom_site_occupancy
  Fe  Fe0  1  0.00000000  0.00000000  0.97487578  1
  Fe  Fe1  1  0.50000000  0.50000000  0.77512422  1
  Pt  Pt0  1  0.00000000  0.00000000  0.52204550  1
  Pt  Pt1  1  0.50000000  0.50000000  0.22795450  1
