# generated using pymatgen
data_2064_Cr3Br2
_symmetry_space_group_name_H-M   'R -3 m'
_cell_length_a   6.49548173
_cell_length_b   6.49548185
_cell_length_c   7.34458004
_cell_angle_alpha   116.24405225
_cell_angle_beta   63.75595297
_cell_angle_gamma   119.99999395
_chemical_formula_structural   Cr3Br2
_chemical_formula_sum   'Br4 Cr6'
_cell_volume   230.74168155
loop_
 _symmetry_equiv_pos_site_id
 _symmetry_equiv_pos_as_xyz
  1  'x, y, z'
loop_
 _atom_type_symbol
  Br
  Cr
loop_
 _atom_site_type_symbol
 _atom_site_label
 _atom_site_symmetry_multiplicity
 _atom_site_fract_x
 _atom_site_fract_y
 _atom_site_fract_z
 _atom_site_occupancy
  Br  Br0  1  0.66966746  0.33033254  0.99099761  1
  Br  Br1  1  0.83033254  0.16966746  0.50900239  1
  Br  Br2  1  0.16966746  0.83033254  0.49099761  1
  Br  Br3  1  0.33033254  0.66966746  0.00900239  1
  Cr  Cr0  1  0.25000000  0.24510940  0.25000000  1
  Cr  Cr1  1  0.75489060  0.25489060  0.25000000  1
  Cr  Cr2  1  0.74510940  0.75000000  0.25000000  1
  Cr  Cr3  1  0.25489060  0.25000000  0.75000000  1
  Cr  Cr4  1  0.24510940  0.74510940  0.75000000  1
  Cr  Cr5  1  0.75000000  0.75489060  0.75000000  1
