# generated using pymatgen
data_2066_Fe2Ga2
_symmetry_space_group_name_H-M   'P4/nmm'
_cell_length_a   4.34945275
_cell_length_b   4.34191119
_cell_length_c   5.23225980
_cell_angle_alpha   90.00000000
_cell_angle_beta   90.00000000
_cell_angle_gamma   90.00000000
_chemical_formula_structural   Fe2Ga2
_chemical_formula_sum   'Fe4 Ga4'
_cell_volume   98.81089965
loop_
 _symmetry_equiv_pos_site_id
 _symmetry_equiv_pos_as_xyz
  1  'x, y, z'
loop_
 _atom_type_symbol
  Fe
  Ga
loop_
 _atom_site_type_symbol
 _atom_site_label
 _atom_site_symmetry_multiplicity
 _atom_site_fract_x
 _atom_site_fract_y
 _atom_site_fract_z
 _atom_site_occupancy
  Fe  Fe0  1  0.75000000  0.75485839  0.23686524  1
  Fe  Fe1  1  0.25000000  0.25485839  0.26313476  1
  Fe  Fe2  1  0.75000000  0.74514161  0.73686524  1
  Fe  Fe3  1  0.25000000  0.24514161  0.76313476  1
  Ga  Ga0  1  0.75000000  0.24661487  0.99318569  1
  Ga  Ga1  1  0.25000000  0.74661487  0.50681431  1
  Ga  Ga2  1  0.75000000  0.25338513  0.49318569  1
  Ga  Ga3  1  0.25000000  0.75338513  0.00681431  1
