# generated using pymatgen
data_206_Cr12W18
_symmetry_space_group_name_H-M   'P4_2/mnm'
_cell_length_a   9.54171059
_cell_length_b   9.54171059
_cell_length_c   4.93294199
_cell_angle_alpha   90.00000000
_cell_angle_beta   90.00000000
_cell_angle_gamma   90.00000000
_chemical_formula_structural   Cr12W18
_chemical_formula_sum   'Cr12 W18'
_cell_volume   449.11595929
loop_
 _symmetry_equiv_pos_site_id
 _symmetry_equiv_pos_as_xyz
  1  'x, y, z'
loop_
 _atom_type_symbol
  Cr
  W
loop_
 _atom_site_type_symbol
 _atom_site_label
 _atom_site_symmetry_multiplicity
 _atom_site_fract_x
 _atom_site_fract_y
 _atom_site_fract_z
 _atom_site_occupancy
  Cr  Cr0  1  0.40453986  0.59546014  0.00000000  1
  Cr  Cr1  1  0.59546014  0.40453986  0.00000000  1
  Cr  Cr2  1  0.90453986  0.90453986  0.50000000  1
  Cr  Cr3  1  0.09546014  0.09546014  0.50000000  1
  Cr  Cr4  1  0.31476237  0.31476237  0.24293881  1
  Cr  Cr5  1  0.68523763  0.68523763  0.24293881  1
  Cr  Cr6  1  0.18523763  0.81476237  0.74293881  1
  Cr  Cr7  1  0.81476237  0.18523763  0.74293881  1
  Cr  Cr8  1  0.18523763  0.81476237  0.25706119  1
  Cr  Cr9  1  0.81476237  0.18523763  0.25706119  1
  Cr  Cr10  1  0.31476237  0.31476237  0.75706119  1
  Cr  Cr11  1  0.68523763  0.68523763  0.75706119  1
  W  W0  1  0.00000000  0.00000000  0.00000000  1
  W  W1  1  0.50000000  0.50000000  0.50000000  1
  W  W2  1  0.13820036  0.53932711  0.00000000  1
  W  W3  1  0.86179964  0.46067289  0.00000000  1
  W  W4  1  0.96067289  0.63820036  0.50000000  1
  W  W5  1  0.03932711  0.36179964  0.50000000  1
  W  W6  1  0.36179964  0.03932711  0.50000000  1
  W  W7  1  0.63820036  0.96067289  0.50000000  1
  W  W8  1  0.53932711  0.13820036  0.00000000  1
  W  W9  1  0.46067289  0.86179964  0.00000000  1
  W  W10  1  0.06428340  0.26032386  0.00000000  1
  W  W11  1  0.93571660  0.73967614  0.00000000  1
  W  W12  1  0.23967614  0.56428340  0.50000000  1
  W  W13  1  0.76032386  0.43571660  0.50000000  1
  W  W14  1  0.43571660  0.76032386  0.50000000  1
  W  W15  1  0.56428340  0.23967614  0.50000000  1
  W  W16  1  0.26032386  0.06428340  0.00000000  1
  W  W17  1  0.73967614  0.93571660  0.00000000  1
