# generated using pymatgen
data_2071_Ga12Pt12
_symmetry_space_group_name_H-M   'Pbcm'
_cell_length_a   5.43055394
_cell_length_b   7.56419808
_cell_length_c   9.33967017
_cell_angle_alpha   90.00000000
_cell_angle_beta   90.00000000
_cell_angle_gamma   90.00000000
_chemical_formula_structural   Ga12Pt12
_chemical_formula_sum   'Ga12 Pt12'
_cell_volume   383.65296962
loop_
 _symmetry_equiv_pos_site_id
 _symmetry_equiv_pos_as_xyz
  1  'x, y, z'
loop_
 _atom_type_symbol
  Ga
  Pt
loop_
 _atom_site_type_symbol
 _atom_site_label
 _atom_site_symmetry_multiplicity
 _atom_site_fract_x
 _atom_site_fract_y
 _atom_site_fract_z
 _atom_site_occupancy
  Ga  Ga0  1  0.25000000  0.11541867  0.16001955  1
  Ga  Ga1  1  0.75000000  0.88458133  0.83998045  1
  Ga  Ga2  1  0.25000000  0.61541867  0.83998045  1
  Ga  Ga3  1  0.75000000  0.38458133  0.16001955  1
  Ga  Ga4  1  0.25000000  0.54143756  0.40723542  1
  Ga  Ga5  1  0.75000000  0.45856244  0.59276458  1
  Ga  Ga6  1  0.25000000  0.04143756  0.59276458  1
  Ga  Ga7  1  0.75000000  0.95856244  0.40723542  1
  Ga  Ga8  1  0.00000000  0.75000000  0.12735068  1
  Ga  Ga9  1  0.50000000  0.25000000  0.87264932  1
  Ga  Ga10  1  0.00000000  0.25000000  0.87264932  1
  Ga  Ga11  1  0.50000000  0.75000000  0.12735068  1
  Pt  Pt0  1  0.25000000  0.45022002  0.07566613  1
  Pt  Pt1  1  0.75000000  0.54977998  0.92433387  1
  Pt  Pt2  1  0.25000000  0.95022002  0.92433387  1
  Pt  Pt3  1  0.75000000  0.04977998  0.07566613  1
  Pt  Pt4  1  0.25000000  0.86173790  0.35010621  1
  Pt  Pt5  1  0.75000000  0.13826210  0.64989379  1
  Pt  Pt6  1  0.25000000  0.36173790  0.64989379  1
  Pt  Pt7  1  0.75000000  0.63826210  0.35010621  1
  Pt  Pt8  1  0.00000000  0.75000000  0.63149445  1
  Pt  Pt9  1  0.50000000  0.25000000  0.36850555  1
  Pt  Pt10  1  0.00000000  0.25000000  0.36850555  1
  Pt  Pt11  1  0.50000000  0.75000000  0.63149445  1
