# generated using pymatgen
data_2072_Ga2Br2
_symmetry_space_group_name_H-M   'Pmmn'
_cell_length_a   4.09520635
_cell_length_b   4.67979293
_cell_length_c   6.32722706
_cell_angle_alpha   90.00000000
_cell_angle_beta   90.00000000
_cell_angle_gamma   90.00000000
_chemical_formula_structural   Ga2Br2
_chemical_formula_sum   'Br2 Ga2'
_cell_volume   121.25952058
loop_
 _symmetry_equiv_pos_site_id
 _symmetry_equiv_pos_as_xyz
  1  'x, y, z'
loop_
 _atom_type_symbol
  Br
  Ga
loop_
 _atom_site_type_symbol
 _atom_site_label
 _atom_site_symmetry_multiplicity
 _atom_site_fract_x
 _atom_site_fract_y
 _atom_site_fract_z
 _atom_site_occupancy
  Br  Br0  1  0.00000000  0.00000000  0.10212564  1
  Br  Br1  1  0.50000000  0.50000000  0.64787436  1
  Ga  Ga0  1  0.00000000  0.00000000  0.61738297  1
  Ga  Ga1  1  0.50000000  0.50000000  0.13261703  1
