# generated using pymatgen
data_2076_K5P3
_symmetry_space_group_name_H-M   'Cmmm'
_cell_length_a   7.00012147
_cell_length_b   7.00012147
_cell_length_c   4.73208158
_cell_angle_alpha   90.00000000
_cell_angle_beta   90.00000000
_cell_angle_gamma   87.62514002
_chemical_formula_structural   K5P3
_chemical_formula_sum   'K5 P3'
_cell_volume   231.68088454
loop_
 _symmetry_equiv_pos_site_id
 _symmetry_equiv_pos_as_xyz
  1  'x, y, z'
loop_
 _atom_type_symbol
  K
  P
loop_
 _atom_site_type_symbol
 _atom_site_label
 _atom_site_symmetry_multiplicity
 _atom_site_fract_x
 _atom_site_fract_y
 _atom_site_fract_z
 _atom_site_occupancy
  K  K0  1  0.00000000  0.00000000  0.00000000  1
  K  K1  1  0.00000000  0.50000000  0.00000000  1
  K  K2  1  0.50000000  0.00000000  0.00000000  1
  K  K3  1  0.29159845  0.29159845  0.50000000  1
  K  K4  1  0.70840155  0.70840155  0.50000000  1
  P  P0  1  0.50000000  0.50000000  0.00000000  1
  P  P1  1  0.74443251  0.25556749  0.50000000  1
  P  P2  1  0.25556749  0.74443251  0.50000000  1
