# generated using pymatgen
data_2080_SnP
_symmetry_space_group_name_H-M   'Fm -3 m'
_cell_length_a   3.95887472
_cell_length_b   3.95887472
_cell_length_c   5.57227596
_cell_angle_alpha   90.00000000
_cell_angle_beta   90.00000000
_cell_angle_gamma   90.00000000
_chemical_formula_structural   SnP
_chemical_formula_sum   'P2 Sn2'
_cell_volume   87.33254841
loop_
 _symmetry_equiv_pos_site_id
 _symmetry_equiv_pos_as_xyz
  1  'x, y, z'
loop_
 _atom_type_symbol
  P
  Sn
loop_
 _atom_site_type_symbol
 _atom_site_label
 _atom_site_symmetry_multiplicity
 _atom_site_fract_x
 _atom_site_fract_y
 _atom_site_fract_z
 _atom_site_occupancy
  P  P0  1  0.00000000  0.00000000  0.87503813  1
  P  P1  1  0.50000000  0.50000000  0.37496187  1
  Sn  Sn0  1  0.00000000  0.00000000  0.37500991  1
  Sn  Sn1  1  0.50000000  0.50000000  0.87499009  1
