# generated using pymatgen
data_2082_BaPd
_symmetry_space_group_name_H-M   'Cmmm'
_cell_length_a   3.91842846
_cell_length_b   3.91842846
_cell_length_c   3.92567319
_cell_angle_alpha   90.00000000
_cell_angle_beta   90.00000000
_cell_angle_gamma   91.59754963
_chemical_formula_structural   BaPd
_chemical_formula_sum   'Ba1 Pd1'
_cell_volume   60.25167799
loop_
 _symmetry_equiv_pos_site_id
 _symmetry_equiv_pos_as_xyz
  1  'x, y, z'
loop_
 _atom_type_symbol
  Ba
  Pd
loop_
 _atom_site_type_symbol
 _atom_site_label
 _atom_site_symmetry_multiplicity
 _atom_site_fract_x
 _atom_site_fract_y
 _atom_site_fract_z
 _atom_site_occupancy
  Ba  Ba0  1  0.00000000  0.00000000  0.00000000  1
  Pd  Pd0  1  0.50000000  0.50000000  0.50000000  1
