# generated using pymatgen
data_2085_Cr5P24
_symmetry_space_group_name_H-M   'I-43m'
_cell_length_a   8.54175682
_cell_length_b   8.54175682
_cell_length_c   8.54175682
_cell_angle_alpha   109.47122063
_cell_angle_beta   109.47122063
_cell_angle_gamma   109.47122063
_chemical_formula_structural   Cr5P24
_chemical_formula_sum   'Cr5 P24'
_cell_volume   479.75523095
loop_
 _symmetry_equiv_pos_site_id
 _symmetry_equiv_pos_as_xyz
  1  'x, y, z'
loop_
 _atom_type_symbol
  Cr
  P
loop_
 _atom_site_type_symbol
 _atom_site_label
 _atom_site_symmetry_multiplicity
 _atom_site_fract_x
 _atom_site_fract_y
 _atom_site_fract_z
 _atom_site_occupancy
  Cr  Cr0  1  0.00000000  0.56032159  0.00000000  1
  Cr  Cr1  1  0.56032159  0.00000000  0.00000000  1
  Cr  Cr2  1  0.00000000  0.00000000  0.56032159  1
  Cr  Cr3  1  0.43967841  0.43967841  0.43967841  1
  Cr  Cr4  1  0.00000000  0.00000000  0.00000000  1
  P  P0  1  0.16103850  0.32150509  0.00000000  1
  P  P1  1  0.32150509  0.16103850  0.00000000  1
  P  P2  1  0.83896150  0.83896150  0.16046659  1
  P  P3  1  0.67849491  0.67849491  0.83953341  1
  P  P4  1  0.83896150  0.16046659  0.83896150  1
  P  P5  1  0.67849491  0.83953341  0.67849491  1
  P  P6  1  0.32150509  0.00000000  0.16103850  1
  P  P7  1  0.16103850  0.00000000  0.32150509  1
  P  P8  1  0.00000000  0.32150509  0.16103850  1
  P  P9  1  0.00000000  0.16103850  0.32150509  1
  P  P10  1  0.83953341  0.67849491  0.67849491  1
  P  P11  1  0.16046659  0.83896150  0.83896150  1
  P  P12  1  0.63019147  0.40266463  0.00000000  1
  P  P13  1  0.40266463  0.63019147  0.00000000  1
  P  P14  1  0.36980853  0.36980853  0.77247316  1
  P  P15  1  0.59733537  0.59733537  0.22752684  1
  P  P16  1  0.36980853  0.77247316  0.36980853  1
  P  P17  1  0.59733537  0.22752684  0.59733537  1
  P  P18  1  0.40266463  0.00000000  0.63019147  1
  P  P19  1  0.63019147  0.00000000  0.40266463  1
  P  P20  1  0.00000000  0.40266463  0.63019147  1
  P  P21  1  1.00000000  0.63019147  0.40266463  1
  P  P22  1  0.22752684  0.59733537  0.59733537  1
  P  P23  1  0.77247316  0.36980853  0.36980853  1
