# generated using pymatgen
data_2086_GaRb
_symmetry_space_group_name_H-M   'R -3 m'
_cell_length_a   6.34229778
_cell_length_b   6.34229778
_cell_length_c   6.34229746
_cell_angle_alpha   35.50896473
_cell_angle_beta   35.50896473
_cell_angle_gamma   35.50897022
_chemical_formula_structural   GaRb
_chemical_formula_sum   'Ga1 Rb1'
_cell_volume   76.91517720
loop_
 _symmetry_equiv_pos_site_id
 _symmetry_equiv_pos_as_xyz
  1  'x, y, z'
loop_
 _atom_type_symbol
  Ga
  Rb
loop_
 _atom_site_type_symbol
 _atom_site_label
 _atom_site_symmetry_multiplicity
 _atom_site_fract_x
 _atom_site_fract_y
 _atom_site_fract_z
 _atom_site_occupancy
  Ga  Ga0  1  0.00000000  0.00000000  0.00000000  1
  Rb  Rb0  1  0.50000043  0.50000043  0.50000066  1
