# generated using pymatgen
data_208_PI
_symmetry_space_group_name_H-M   'R -3 m'
_cell_length_a   4.22532088
_cell_length_b   4.22532088
_cell_length_c   4.22532024
_cell_angle_alpha   59.06825392
_cell_angle_beta   59.06825392
_cell_angle_gamma   59.06826576
_chemical_formula_structural   PI
_chemical_formula_sum   'I1 P1'
_cell_volume   52.20811625
loop_
 _symmetry_equiv_pos_site_id
 _symmetry_equiv_pos_as_xyz
  1  'x, y, z'
loop_
 _atom_type_symbol
  I
  P
loop_
 _atom_site_type_symbol
 _atom_site_label
 _atom_site_symmetry_multiplicity
 _atom_site_fract_x
 _atom_site_fract_y
 _atom_site_fract_z
 _atom_site_occupancy
  I  I0  1  0.00000000  0.00000000  0.00000000  1
  P  P0  1  0.49999991  0.49999991  0.49999991  1
