# generated using pymatgen
data_2091_Pb16V8
_symmetry_space_group_name_H-M   'Fd -3 m'
_cell_length_a   9.59393123
_cell_length_b   9.59393123
_cell_length_c   9.59393123
_cell_angle_alpha   60.00000000
_cell_angle_beta   60.00000000
_cell_angle_gamma   60.00000000
_chemical_formula_structural   Pb16V8
_chemical_formula_sum   'Pb16 V8'
_cell_volume   624.41712487
loop_
 _symmetry_equiv_pos_site_id
 _symmetry_equiv_pos_as_xyz
  1  'x, y, z'
loop_
 _atom_type_symbol
  Pb
  V
loop_
 _atom_site_type_symbol
 _atom_site_label
 _atom_site_symmetry_multiplicity
 _atom_site_fract_x
 _atom_site_fract_y
 _atom_site_fract_z
 _atom_site_occupancy
  Pb  Pb0  1  0.00000000  0.50000000  0.00000000  1
  Pb  Pb1  1  0.50000000  0.00000000  0.00000000  1
  Pb  Pb2  1  0.50000000  0.50000000  0.00000000  1
  Pb  Pb3  1  0.50000000  0.50000000  0.50000000  1
  Pb  Pb4  1  0.92938200  0.92938200  0.82061800  1
  Pb  Pb5  1  0.92938200  0.32061800  0.82061800  1
  Pb  Pb6  1  0.32061800  0.92938200  0.82061800  1
  Pb  Pb7  1  0.92938200  0.32061800  0.42938200  1
  Pb  Pb8  1  0.32061800  0.92938200  0.42938200  1
  Pb  Pb9  1  0.32061800  0.32061800  0.42938200  1
  Pb  Pb10  1  0.07061800  0.07061800  0.17938200  1
  Pb  Pb11  1  0.07061800  0.67938200  0.17938200  1
  Pb  Pb12  1  0.67938200  0.07061800  0.17938200  1
  Pb  Pb13  1  0.07061800  0.67938200  0.57061800  1
  Pb  Pb14  1  0.67938200  0.07061800  0.57061800  1
  Pb  Pb15  1  0.67938200  0.67938200  0.57061800  1
  V  V0  1  0.68773829  0.68773829  0.93678514  1
  V  V1  1  0.68773829  0.68773829  0.18773829  1
  V  V2  1  0.68773829  0.43678514  0.18773829  1
  V  V3  1  0.43678514  0.68773829  0.18773829  1
  V  V4  1  0.31226171  0.31226171  0.06321486  1
  V  V5  1  0.31226171  0.31226171  0.81226171  1
  V  V6  1  0.31226171  0.56321486  0.81226171  1
  V  V7  1  0.56321486  0.31226171  0.81226171  1
