# generated using pymatgen
data_2094_Al3Sn
_symmetry_space_group_name_H-M   'Imm2'
_cell_length_a   5.84811102
_cell_length_b   5.84811102
_cell_length_c   5.84811102
_cell_angle_alpha   149.66857700
_cell_angle_beta   127.00372100
_cell_angle_gamma   62.29070934
_chemical_formula_structural   Al3Sn
_chemical_formula_sum   'Al3 Sn1'
_cell_volume   79.92169406
loop_
 _symmetry_equiv_pos_site_id
 _symmetry_equiv_pos_as_xyz
  1  'x, y, z'
loop_
 _atom_type_symbol
  Al
  Sn
loop_
 _atom_site_type_symbol
 _atom_site_label
 _atom_site_symmetry_multiplicity
 _atom_site_fract_x
 _atom_site_fract_y
 _atom_site_fract_z
 _atom_site_occupancy
  Al  Al0  1  0.22237836  0.23617027  0.98620809  1
  Al  Al1  1  0.75003782  0.76382973  0.98620809  1
  Al  Al2  1  0.84098727  0.50000000  0.34098727  1
  Sn  Sn0  1  0.35326654  0.00000000  0.35326654  1
