# generated using pymatgen
data_2097_Nb2Pb
_symmetry_space_group_name_H-M   'Fmmm'
_cell_length_a   7.18280378
_cell_length_b   7.18280378
_cell_length_c   5.16709124
_cell_angle_alpha   90.00000000
_cell_angle_beta   90.00000000
_cell_angle_gamma   151.88586893
_chemical_formula_structural   Nb2Pb
_chemical_formula_sum   'Nb4 Pb2'
_cell_volume   125.62224213
loop_
 _symmetry_equiv_pos_site_id
 _symmetry_equiv_pos_as_xyz
  1  'x, y, z'
loop_
 _atom_type_symbol
  Nb
  Pb
loop_
 _atom_site_type_symbol
 _atom_site_label
 _atom_site_symmetry_multiplicity
 _atom_site_fract_x
 _atom_site_fract_y
 _atom_site_fract_z
 _atom_site_occupancy
  Nb  Nb0  1  0.96424620  0.03575380  0.00000000  1
  Nb  Nb1  1  0.31545222  0.68454778  0.00000000  1
  Nb  Nb2  1  0.46232556  0.53767444  0.50000000  1
  Nb  Nb3  1  0.81353157  0.18646843  0.50000000  1
  Pb  Pb0  1  0.64045116  0.35954884  0.00000000  1
  Pb  Pb1  1  0.13732662  0.86267338  0.50000000  1
