# generated using pymatgen
data_2098_Ce20Ir16
_symmetry_space_group_name_H-M   'Pnma'
_cell_length_a   7.61448271
_cell_length_b   15.23211178
_cell_length_c   7.81731931
_cell_angle_alpha   90.00000000
_cell_angle_beta   90.00000000
_cell_angle_gamma   90.00000000
_chemical_formula_structural   Ce20Ir16
_chemical_formula_sum   'Ce20 Ir16'
_cell_volume   906.68905807
loop_
 _symmetry_equiv_pos_site_id
 _symmetry_equiv_pos_as_xyz
  1  'x, y, z'
loop_
 _atom_type_symbol
  Ce
  Ir
loop_
 _atom_site_type_symbol
 _atom_site_label
 _atom_site_symmetry_multiplicity
 _atom_site_fract_x
 _atom_site_fract_y
 _atom_site_fract_z
 _atom_site_occupancy
  Ce  Ce0  1  0.67405810  0.75000000  0.01660040  1
  Ce  Ce1  1  0.98806869  0.59170288  0.18014708  1
  Ce  Ce2  1  0.98806869  0.90829712  0.18014708  1
  Ce  Ce3  1  0.65811099  0.12266726  0.17514096  1
  Ce  Ce4  1  0.65811099  0.37733274  0.17514096  1
  Ce  Ce5  1  0.15811099  0.12266726  0.32485904  1
  Ce  Ce6  1  0.15811099  0.37733274  0.32485904  1
  Ce  Ce7  1  0.48806869  0.59170288  0.31985292  1
  Ce  Ce8  1  0.48806869  0.90829712  0.31985292  1
  Ce  Ce9  1  0.17405810  0.75000000  0.48339960  1
  Ce  Ce10  1  0.82594190  0.25000000  0.51660040  1
  Ce  Ce11  1  0.51193131  0.09170288  0.68014708  1
  Ce  Ce12  1  0.51193131  0.40829712  0.68014708  1
  Ce  Ce13  1  0.84188901  0.62266726  0.67514096  1
  Ce  Ce14  1  0.84188901  0.87733274  0.67514096  1
  Ce  Ce15  1  0.34188901  0.62266726  0.82485904  1
  Ce  Ce16  1  0.34188901  0.87733274  0.82485904  1
  Ce  Ce17  1  0.01193131  0.09170288  0.81985292  1
  Ce  Ce18  1  0.01193131  0.40829712  0.81985292  1
  Ce  Ce19  1  0.32594190  0.25000000  0.98339960  1
  Ir  Ir0  1  0.32580492  0.03735749  0.03292443  1
  Ir  Ir1  1  0.32580492  0.46264251  0.03292443  1
  Ir  Ir2  1  0.95202000  0.25000000  0.09306071  1
  Ir  Ir3  1  0.29575391  0.75000000  0.13875673  1
  Ir  Ir4  1  0.79575391  0.75000000  0.36124327  1
  Ir  Ir5  1  0.45202000  0.25000000  0.40693929  1
  Ir  Ir6  1  0.82580492  0.03735749  0.46707557  1
  Ir  Ir7  1  0.82580492  0.46264251  0.46707557  1
  Ir  Ir8  1  0.17419508  0.53735749  0.53292443  1
  Ir  Ir9  1  0.17419508  0.96264251  0.53292443  1
  Ir  Ir10  1  0.54798000  0.75000000  0.59306071  1
  Ir  Ir11  1  0.20424609  0.25000000  0.63875673  1
  Ir  Ir12  1  0.70424609  0.25000000  0.86124327  1
  Ir  Ir13  1  0.04798000  0.75000000  0.90693929  1
  Ir  Ir14  1  0.67419508  0.53735749  0.96707557  1
  Ir  Ir15  1  0.67419508  0.96264251  0.96707557  1
