# generated using pymatgen
data_20_Sr6Br4
_symmetry_space_group_name_H-M   'R -3 c'
_cell_length_a   7.71082400
_cell_length_b   7.71082583
_cell_length_c   8.68707720
_cell_angle_alpha   116.34723926
_cell_angle_beta   63.65276265
_cell_angle_gamma   120.00000074
_chemical_formula_structural   Sr6Br4
_chemical_formula_sum   'Br4 Sr6'
_cell_volume   384.10565864
loop_
 _symmetry_equiv_pos_site_id
 _symmetry_equiv_pos_as_xyz
  1  'x, y, z'
loop_
 _atom_type_symbol
  Br
  Sr
loop_
 _atom_site_type_symbol
 _atom_site_label
 _atom_site_symmetry_multiplicity
 _atom_site_fract_x
 _atom_site_fract_y
 _atom_site_fract_z
 _atom_site_occupancy
  Br  Br0  1  0.33019981  0.66980079  0.00940125  1
  Br  Br1  1  0.16980083  0.83019975  0.49059814  1
  Br  Br2  1  0.83019963  0.16980110  0.50940331  1
  Br  Br3  1  0.66979979  0.33019962  0.99059886  1
  Sr  Sr0  1  0.59602903  0.75000072  0.25000103  1
  Sr  Sr1  1  0.25000004  0.09602953  0.25000103  1
  Sr  Sr2  1  0.90397032  0.40397060  0.25000103  1
  Sr  Sr3  1  0.09603014  0.59603026  0.75000042  1
  Sr  Sr4  1  0.75000042  0.90397133  0.75000042  1
  Sr  Sr5  1  0.40396883  0.25000014  0.75000042  1
