# generated using pymatgen
data_2104_As16Br4
_symmetry_space_group_name_H-M   'I23'
_cell_length_a   8.69393636
_cell_length_b   8.69393636
_cell_length_c   8.69393636
_cell_angle_alpha   109.47122063
_cell_angle_beta   109.47122063
_cell_angle_gamma   109.47122063
_chemical_formula_structural   As16Br4
_chemical_formula_sum   'As16 Br4'
_cell_volume   505.85666940
loop_
 _symmetry_equiv_pos_site_id
 _symmetry_equiv_pos_as_xyz
  1  'x, y, z'
loop_
 _atom_type_symbol
  As
  Br
loop_
 _atom_site_type_symbol
 _atom_site_label
 _atom_site_symmetry_multiplicity
 _atom_site_fract_x
 _atom_site_fract_y
 _atom_site_fract_z
 _atom_site_occupancy
  As  As0  1  0.76410179  0.76410179  0.76410179  1
  As  As1  1  0.23589821  0.00000000  0.00000000  1
  As  As2  1  1.00000000  0.23589821  0.00000000  1
  As  As3  1  1.00000000  0.00000000  0.23589821  1
  As  As4  1  0.66272504  0.66272504  0.00000000  1
  As  As5  1  0.33727496  0.33727496  0.00000000  1
  As  As6  1  0.66272504  0.00000000  0.66272504  1
  As  As7  1  0.33727496  0.00000000  0.33727496  1
  As  As8  1  1.00000000  0.66272504  0.66272504  1
  As  As9  1  1.00000000  0.33727496  0.33727496  1
  As  As10  1  0.18696474  0.68696474  0.50000000  1
  As  As11  1  0.81303526  0.31303526  0.50000000  1
  As  As12  1  0.68696474  0.50000000  0.18696474  1
  As  As13  1  0.31303526  0.50000000  0.81303526  1
  As  As14  1  0.50000000  0.18696474  0.68696474  1
  As  As15  1  0.50000000  0.81303526  0.31303526  1
  Br  Br0  1  0.49225107  0.49225107  0.49225107  1
  Br  Br1  1  0.50774893  0.00000000  0.00000000  1
  Br  Br2  1  0.00000000  0.50774893  0.00000000  1
  Br  Br3  1  0.00000000  0.00000000  0.50774893  1
