# generated using pymatgen
data_2111_Ag2P
_symmetry_space_group_name_H-M   'Fm -3 m'
_cell_length_a   4.31551038
_cell_length_b   4.30021429
_cell_length_c   6.11337478
_cell_angle_alpha   90.00000000
_cell_angle_beta   90.00000000
_cell_angle_gamma   90.00000000
_chemical_formula_structural   Ag2P
_chemical_formula_sum   'Ag4 P2'
_cell_volume   113.44968245
loop_
 _symmetry_equiv_pos_site_id
 _symmetry_equiv_pos_as_xyz
  1  'x, y, z'
loop_
 _atom_type_symbol
  Ag
  P
loop_
 _atom_site_type_symbol
 _atom_site_label
 _atom_site_symmetry_multiplicity
 _atom_site_fract_x
 _atom_site_fract_y
 _atom_site_fract_z
 _atom_site_occupancy
  Ag  Ag0  1  0.00000000  0.50014764  0.25065027  1
  Ag  Ag1  1  0.00000000  0.49985236  0.74934973  1
  Ag  Ag2  1  0.50000000  0.99985236  0.75065027  1
  Ag  Ag3  1  0.50000000  0.00014764  0.24934973  1
  P  P0  1  0.00000000  0.00000000  0.00000000  1
  P  P1  1  0.50000000  0.50000000  0.50000000  1
