# generated using pymatgen
data_2115_Pd8Sb4
_symmetry_space_group_name_H-M   'Cmc2_1'
_cell_length_a   9.04254592
_cell_length_b   9.04254592
_cell_length_c   7.03670445
_cell_angle_alpha   90.00000000
_cell_angle_beta   90.00000000
_cell_angle_gamma   158.06513583
_chemical_formula_structural   Pd8Sb4
_chemical_formula_sum   'Pd8 Sb4'
_cell_volume   214.93253833
loop_
 _symmetry_equiv_pos_site_id
 _symmetry_equiv_pos_as_xyz
  1  'x, y, z'
loop_
 _atom_type_symbol
  Pd
  Sb
loop_
 _atom_site_type_symbol
 _atom_site_label
 _atom_site_symmetry_multiplicity
 _atom_site_fract_x
 _atom_site_fract_y
 _atom_site_fract_z
 _atom_site_occupancy
  Pd  Pd0  1  0.96155677  0.03844323  0.00365580  1
  Pd  Pd1  1  0.03844323  0.96155677  0.50365580  1
  Pd  Pd2  1  0.17537876  0.82462124  0.10545378  1
  Pd  Pd3  1  0.82462124  0.17537876  0.60545378  1
  Pd  Pd4  1  0.32994039  0.67005961  0.95290609  1
  Pd  Pd5  1  0.67005961  0.32994039  0.45290609  1
  Pd  Pd6  1  0.58636471  0.41363529  0.82660969  1
  Pd  Pd7  1  0.41363529  0.58636471  0.32660969  1
  Sb  Sb0  1  0.55734893  0.44265107  0.19763092  1
  Sb  Sb1  1  0.44265107  0.55734893  0.69763092  1
  Sb  Sb2  1  0.20508679  0.79491321  0.72804371  1
  Sb  Sb3  1  0.79491321  0.20508679  0.22804371  1
