# generated using pymatgen
data_2123_V4W2
_symmetry_space_group_name_H-M   'I4_1/amd'
_cell_length_a   3.23536287
_cell_length_b   8.83345604
_cell_length_c   3.23536287
_cell_angle_alpha   79.44780309
_cell_angle_beta   90.00000000
_cell_angle_gamma   100.55219691
_chemical_formula_structural   V4W2
_chemical_formula_sum   'V4 W2'
_cell_volume   89.31002840
loop_
 _symmetry_equiv_pos_site_id
 _symmetry_equiv_pos_as_xyz
  1  'x, y, z'
loop_
 _atom_type_symbol
  V
  W
loop_
 _atom_site_type_symbol
 _atom_site_label
 _atom_site_symmetry_multiplicity
 _atom_site_fract_x
 _atom_site_fract_y
 _atom_site_fract_z
 _atom_site_occupancy
  V  V0  1  0.17364216  0.34728432  0.32635784  1
  V  V1  1  0.32635784  0.65271568  0.17364216  1
  V  V2  1  0.42364216  0.84728432  0.57635784  1
  V  V3  1  0.57635784  0.15271568  0.42364216  1
  W  W0  1  0.00000000  0.00000000  0.00000000  1
  W  W1  1  0.75000000  0.50000000  0.75000000  1
