# generated using pymatgen
data_2124_Fe6Ir2
_symmetry_space_group_name_H-M   'I4/mmm'
_cell_length_a   3.65269942
_cell_length_b   3.65269942
_cell_length_c   7.74260242
_cell_angle_alpha   76.35631086
_cell_angle_beta   76.35631086
_cell_angle_gamma   90.00000000
_chemical_formula_structural   Fe6Ir2
_chemical_formula_sum   'Fe6 Ir2'
_cell_volume   97.38607872
loop_
 _symmetry_equiv_pos_site_id
 _symmetry_equiv_pos_as_xyz
  1  'x, y, z'
loop_
 _atom_type_symbol
  Fe
  Ir
loop_
 _atom_site_type_symbol
 _atom_site_label
 _atom_site_symmetry_multiplicity
 _atom_site_fract_x
 _atom_site_fract_y
 _atom_site_fract_z
 _atom_site_occupancy
  Fe  Fe0  1  0.00000000  0.50000000  0.00000000  1
  Fe  Fe1  1  0.50000000  0.00000000  0.00000000  1
  Fe  Fe2  1  0.75000000  0.25000000  0.50000000  1
  Fe  Fe3  1  0.25000000  0.75000000  0.50000000  1
  Fe  Fe4  1  0.87587112  0.87587112  0.24825776  1
  Fe  Fe5  1  0.12412888  0.12412888  0.75174224  1
  Ir  Ir0  1  0.62489376  0.62489376  0.75021248  1
  Ir  Ir1  1  0.37510624  0.37510624  0.24978752  1
