# generated using pymatgen
data_2127_MoTa2
_symmetry_space_group_name_H-M   'I4/mmm'
_cell_length_a   3.24435950
_cell_length_b   5.43860781
_cell_length_c   3.24435950
_cell_angle_alpha   72.64620666
_cell_angle_beta   90.00000000
_cell_angle_gamma   107.35379334
_chemical_formula_structural   MoTa2
_chemical_formula_sum   'Mo1 Ta2'
_cell_volume   51.90386860
loop_
 _symmetry_equiv_pos_site_id
 _symmetry_equiv_pos_as_xyz
  1  'x, y, z'
loop_
 _atom_type_symbol
  Mo
  Ta
loop_
 _atom_site_type_symbol
 _atom_site_label
 _atom_site_symmetry_multiplicity
 _atom_site_fract_x
 _atom_site_fract_y
 _atom_site_fract_z
 _atom_site_occupancy
  Mo  Mo0  1  0.00000000  0.00000000  0.00000000  1
  Ta  Ta0  1  0.34009958  0.68019915  0.65990042  1
  Ta  Ta1  1  0.65990042  0.31980085  0.34009958  1
