# generated using pymatgen
data_2131_Cr3Nb
_symmetry_space_group_name_H-M   'Pm -3 m'
_cell_length_a   4.45435298
_cell_length_b   4.45435298
_cell_length_c   4.45435298
_cell_angle_alpha   90.00000000
_cell_angle_beta   90.00000000
_cell_angle_gamma   90.00000000
_chemical_formula_structural   Cr3Nb
_chemical_formula_sum   'Cr3 Nb1'
_cell_volume   88.37997770
loop_
 _symmetry_equiv_pos_site_id
 _symmetry_equiv_pos_as_xyz
  1  'x, y, z'
loop_
 _atom_type_symbol
  Cr
  Nb
loop_
 _atom_site_type_symbol
 _atom_site_label
 _atom_site_symmetry_multiplicity
 _atom_site_fract_x
 _atom_site_fract_y
 _atom_site_fract_z
 _atom_site_occupancy
  Cr  Cr0  1  0.00000000  0.00000000  0.50000000  1
  Cr  Cr1  1  0.00000000  0.50000000  0.00000000  1
  Cr  Cr2  1  0.50000000  0.00000000  0.00000000  1
  Nb  Nb0  1  0.00000000  0.00000000  0.00000000  1
