# generated using pymatgen
data_2138_Mo3Sr
_symmetry_space_group_name_H-M   'Cmmm'
_cell_length_a   2.87189907
_cell_length_b   2.87189907
_cell_length_c   9.83371752
_cell_angle_alpha   90.00000000
_cell_angle_beta   90.00000000
_cell_angle_gamma   109.61378560
_chemical_formula_structural   Mo3Sr
_chemical_formula_sum   'Mo3 Sr1'
_cell_volume   76.40050715
loop_
 _symmetry_equiv_pos_site_id
 _symmetry_equiv_pos_as_xyz
  1  'x, y, z'
loop_
 _atom_type_symbol
  Mo
  Sr
loop_
 _atom_site_type_symbol
 _atom_site_label
 _atom_site_symmetry_multiplicity
 _atom_site_fract_x
 _atom_site_fract_y
 _atom_site_fract_z
 _atom_site_occupancy
  Mo  Mo0  1  0.00000000  0.00000000  0.96088865  1
  Mo  Mo1  1  0.50000000  0.50000000  0.75000000  1
  Mo  Mo2  1  0.00000000  0.00000000  0.53911135  1
  Sr  Sr0  1  0.50000000  0.50000000  0.25000000  1
