# generated using pymatgen
data_213_Mn2Sn2
_symmetry_space_group_name_H-M   'I4_1/amd'
_cell_length_a   5.42124068
_cell_length_b   5.42124068
_cell_length_c   5.42124068
_cell_angle_alpha   136.26298190
_cell_angle_beta   136.26298190
_cell_angle_gamma   63.57402211
_chemical_formula_structural   Mn2Sn2
_chemical_formula_sum   'Mn2 Sn2'
_cell_volume   75.15915601
loop_
 _symmetry_equiv_pos_site_id
 _symmetry_equiv_pos_as_xyz
  1  'x, y, z'
loop_
 _atom_type_symbol
  Mn
  Sn
loop_
 _atom_site_type_symbol
 _atom_site_label
 _atom_site_symmetry_multiplicity
 _atom_site_fract_x
 _atom_site_fract_y
 _atom_site_fract_z
 _atom_site_occupancy
  Mn  Mn0  1  0.00000000  0.00000000  0.00000000  1
  Mn  Mn1  1  0.25000000  0.75000000  0.50000000  1
  Sn  Sn0  1  0.50000000  0.50000000  0.00000000  1
  Sn  Sn1  1  0.75000000  0.25000000  0.50000000  1
