# generated using pymatgen
data_2142_K8P4
_symmetry_space_group_name_H-M   'Pnma'
_cell_length_a   5.33762044
_cell_length_b   7.21473084
_cell_length_c   10.37349681
_cell_angle_alpha   90.00000000
_cell_angle_beta   90.00000000
_cell_angle_gamma   90.00000000
_chemical_formula_structural   K8P4
_chemical_formula_sum   'K8 P4'
_cell_volume   399.47812147
loop_
 _symmetry_equiv_pos_site_id
 _symmetry_equiv_pos_as_xyz
  1  'x, y, z'
loop_
 _atom_type_symbol
  K
  P
loop_
 _atom_site_type_symbol
 _atom_site_label
 _atom_site_symmetry_multiplicity
 _atom_site_fract_x
 _atom_site_fract_y
 _atom_site_fract_z
 _atom_site_occupancy
  K  K0  1  0.25000000  0.04930008  0.82759262  1
  K  K1  1  0.75000000  0.45069992  0.32759262  1
  K  K2  1  0.25000000  0.54930008  0.67240738  1
  K  K3  1  0.75000000  0.95069992  0.17240738  1
  K  K4  1  0.25000000  0.15696886  0.47155807  1
  K  K5  1  0.75000000  0.34303114  0.97155807  1
  K  K6  1  0.25000000  0.65696886  0.02844193  1
  K  K7  1  0.75000000  0.84303114  0.52844193  1
  P  P0  1  0.25000000  0.74665885  0.32689889  1
  P  P1  1  0.75000000  0.75334115  0.82689889  1
  P  P2  1  0.25000000  0.24665885  0.17310111  1
  P  P3  1  0.75000000  0.25334115  0.67310111  1
