# generated using pymatgen
data_2145_Ag2Ge2
_symmetry_space_group_name_H-M   'Cmcm'
_cell_length_a   5.58291906
_cell_length_b   5.58291906
_cell_length_c   4.64782478
_cell_angle_alpha   90.00000000
_cell_angle_beta   90.00000000
_cell_angle_gamma   149.09167365
_chemical_formula_structural   Ag2Ge2
_chemical_formula_sum   'Ag2 Ge2'
_cell_volume   74.41374838
loop_
 _symmetry_equiv_pos_site_id
 _symmetry_equiv_pos_as_xyz
  1  'x, y, z'
loop_
 _atom_type_symbol
  Ag
  Ge
loop_
 _atom_site_type_symbol
 _atom_site_label
 _atom_site_symmetry_multiplicity
 _atom_site_fract_x
 _atom_site_fract_y
 _atom_site_fract_z
 _atom_site_occupancy
  Ag  Ag0  1  0.58197083  0.41802917  0.75000000  1
  Ag  Ag1  1  0.41802917  0.58197083  0.25000000  1
  Ge  Ge0  1  0.83951676  0.16048324  0.75000000  1
  Ge  Ge1  1  0.16048324  0.83951676  0.25000000  1
