# generated using pymatgen
data_2157_InSn2
_symmetry_space_group_name_H-M   'I4/mmm'
_cell_length_a   6.30647629
_cell_length_b   6.30647629
_cell_length_c   6.30647629
_cell_angle_alpha   144.93374137
_cell_angle_beta   144.93374137
_cell_angle_gamma   50.43327576
_chemical_formula_structural   InSn2
_chemical_formula_sum   'In1 Sn2'
_cell_volume   82.37612970
loop_
 _symmetry_equiv_pos_site_id
 _symmetry_equiv_pos_as_xyz
  1  'x, y, z'
loop_
 _atom_type_symbol
  In
  Sn
loop_
 _atom_site_type_symbol
 _atom_site_label
 _atom_site_symmetry_multiplicity
 _atom_site_fract_x
 _atom_site_fract_y
 _atom_site_fract_z
 _atom_site_occupancy
  In  In0  1  0.00000000  0.00000000  0.00000000  1
  Sn  Sn0  1  0.66711173  0.66711173  0.00000000  1
  Sn  Sn1  1  0.33288827  0.33288827  0.00000000  1
