# generated using pymatgen
data_2159_Al4Rh2
_symmetry_space_group_name_H-M   'Imma'
_cell_length_a   9.66024332
_cell_length_b   9.66024332
_cell_length_c   9.66024332
_cell_angle_alpha   161.97883205
_cell_angle_beta   161.11771504
_cell_angle_gamma   26.21694598
_chemical_formula_structural   Al4Rh2
_chemical_formula_sum   'Al4 Rh2'
_cell_volume   90.22584110
loop_
 _symmetry_equiv_pos_site_id
 _symmetry_equiv_pos_as_xyz
  1  'x, y, z'
loop_
 _atom_type_symbol
  Al
  Rh
loop_
 _atom_site_type_symbol
 _atom_site_label
 _atom_site_symmetry_multiplicity
 _atom_site_fract_x
 _atom_site_fract_y
 _atom_site_fract_z
 _atom_site_occupancy
  Al  Al0  1  0.69603095  0.94603095  0.75000000  1
  Al  Al1  1  0.30396905  0.05396905  0.25000000  1
  Al  Al2  1  0.55520234  0.80520234  0.75000000  1
  Al  Al3  1  0.44479766  0.19479766  0.25000000  1
  Rh  Rh0  1  0.12664958  0.37664958  0.75000000  1
  Rh  Rh1  1  0.87335042  0.62335042  0.25000000  1
