# generated using pymatgen
data_2161_RbV
_symmetry_space_group_name_H-M   'P-6m2'
_cell_length_a   3.48236895
_cell_length_b   3.48234119
_cell_length_c   6.33474225
_cell_angle_alpha   90.00000000
_cell_angle_beta   90.00000000
_cell_angle_gamma   120.00026356
_chemical_formula_structural   RbV
_chemical_formula_sum   'Rb1 V1'
_cell_volume   66.52800946
loop_
 _symmetry_equiv_pos_site_id
 _symmetry_equiv_pos_as_xyz
  1  'x, y, z'
loop_
 _atom_type_symbol
  Rb
  V
loop_
 _atom_site_type_symbol
 _atom_site_label
 _atom_site_symmetry_multiplicity
 _atom_site_fract_x
 _atom_site_fract_y
 _atom_site_fract_z
 _atom_site_occupancy
  Rb  Rb0  1  0.66666788  0.33333630  0.74999995  1
  V  V0  1  0.33333193  0.66666373  0.24999998  1
