# generated using pymatgen
data_2168_Pb6As18
_symmetry_space_group_name_H-M   'Pmmn'
_cell_length_a   5.60421603
_cell_length_b   7.56511180
_cell_length_c   14.99265026
_cell_angle_alpha   90.00000000
_cell_angle_beta   90.00000000
_cell_angle_gamma   90.00000000
_chemical_formula_structural   Pb6As18
_chemical_formula_sum   'As18 Pb6'
_cell_volume   635.63620887
loop_
 _symmetry_equiv_pos_site_id
 _symmetry_equiv_pos_as_xyz
  1  'x, y, z'
loop_
 _atom_type_symbol
  As
  Pb
loop_
 _atom_site_type_symbol
 _atom_site_label
 _atom_site_symmetry_multiplicity
 _atom_site_fract_x
 _atom_site_fract_y
 _atom_site_fract_z
 _atom_site_occupancy
  As  As0  1  0.23355350  0.91420332  0.41972873  1
  As  As1  1  0.23355350  0.91420332  0.08027127  1
  As  As2  1  0.66077611  0.00663168  0.75000000  1
  As  As3  1  0.33922389  0.99336832  0.25000000  1
  As  As4  1  0.76644650  0.08579668  0.91972873  1
  As  As5  1  0.76644650  0.08579668  0.58027127  1
  As  As6  1  0.06216281  0.25000000  0.25000000  1
  As  As7  1  0.37937619  0.25000000  0.93698930  1
  As  As8  1  0.37937619  0.25000000  0.56301070  1
  As  As9  1  0.23355350  0.58579668  0.41972873  1
  As  As10  1  0.23355350  0.58579668  0.08027127  1
  As  As11  1  0.66077611  0.49336832  0.75000000  1
  As  As12  1  0.33922389  0.50663168  0.25000000  1
  As  As13  1  0.76644650  0.41420332  0.91972873  1
  As  As14  1  0.76644650  0.41420332  0.58027127  1
  As  As15  1  0.93783719  0.75000000  0.75000000  1
  As  As16  1  0.62062381  0.75000000  0.43698930  1
  As  As17  1  0.62062381  0.75000000  0.06301070  1
  Pb  Pb0  1  0.14647795  0.25000000  0.75000000  1
  Pb  Pb1  1  0.66727608  0.25000000  0.37902690  1
  Pb  Pb2  1  0.66727608  0.25000000  0.12097310  1
  Pb  Pb3  1  0.85352205  0.75000000  0.25000000  1
  Pb  Pb4  1  0.33272392  0.75000000  0.87902690  1
  Pb  Pb5  1  0.33272392  0.75000000  0.62097310  1
