# generated using pymatgen
data_2170_Al3Ta
_symmetry_space_group_name_H-M   'P4/mmm'
_cell_length_a   2.80194020
_cell_length_b   2.80194020
_cell_length_c   8.55942196
_cell_angle_alpha   90.00000000
_cell_angle_beta   90.00000000
_cell_angle_gamma   90.00000000
_chemical_formula_structural   Al3Ta
_chemical_formula_sum   'Al3 Ta1'
_cell_volume   67.19889953
loop_
 _symmetry_equiv_pos_site_id
 _symmetry_equiv_pos_as_xyz
  1  'x, y, z'
loop_
 _atom_type_symbol
  Al
  Ta
loop_
 _atom_site_type_symbol
 _atom_site_label
 _atom_site_symmetry_multiplicity
 _atom_site_fract_x
 _atom_site_fract_y
 _atom_site_fract_z
 _atom_site_occupancy
  Al  Al0  1  0.50000000  0.50000000  0.75412707  1
  Al  Al1  1  0.00000000  0.00000000  0.50000000  1
  Al  Al2  1  0.50000000  0.50000000  0.24587293  1
  Ta  Ta0  1  0.00000000  0.00000000  0.00000000  1
