# generated using pymatgen
data_2171_Ir2V
_symmetry_space_group_name_H-M   'I4/mmm'
_cell_length_a   6.02064127
_cell_length_b   6.02064127
_cell_length_c   6.02064127
_cell_angle_alpha   153.81028478
_cell_angle_beta   153.81028478
_cell_angle_gamma   37.37541045
_chemical_formula_structural   Ir2V
_chemical_formula_sum   'Ir2 V1'
_cell_volume   42.44705533
loop_
 _symmetry_equiv_pos_site_id
 _symmetry_equiv_pos_as_xyz
  1  'x, y, z'
loop_
 _atom_type_symbol
  Ir
  V
loop_
 _atom_site_type_symbol
 _atom_site_label
 _atom_site_symmetry_multiplicity
 _atom_site_fract_x
 _atom_site_fract_y
 _atom_site_fract_z
 _atom_site_occupancy
  Ir  Ir0  1  0.16038586  0.16038586  0.00000000  1
  Ir  Ir1  1  0.83961414  0.83961414  0.00000000  1
  V  V0  1  0.50000000  0.50000000  0.00000000  1
