# generated using pymatgen
data_2181_Pb3As
_symmetry_space_group_name_H-M   'Immm'
_cell_length_a   6.38205037
_cell_length_b   6.38205037
_cell_length_c   6.38205037
_cell_angle_alpha   143.94509493
_cell_angle_beta   130.45374145
_cell_angle_gamma   62.78780158
_chemical_formula_structural   Pb3As
_chemical_formula_sum   'As1 Pb3'
_cell_volume   115.09642013
loop_
 _symmetry_equiv_pos_site_id
 _symmetry_equiv_pos_as_xyz
  1  'x, y, z'
loop_
 _atom_type_symbol
  As
  Pb
loop_
 _atom_site_type_symbol
 _atom_site_label
 _atom_site_symmetry_multiplicity
 _atom_site_fract_x
 _atom_site_fract_y
 _atom_site_fract_z
 _atom_site_occupancy
  As  As0  1  0.00000000  0.00000000  0.00000000  1
  Pb  Pb0  1  0.21037144  0.71037144  0.50000000  1
  Pb  Pb1  1  0.50000000  0.50000000  1.00000000  1
  Pb  Pb2  1  0.78962856  0.28962856  0.50000000  1
