# generated using pymatgen
data_2185_Pb3Sb
_symmetry_space_group_name_H-M   'Pmmm'
_cell_length_a   3.49156621
_cell_length_b   5.02820658
_cell_length_c   7.01509778
_cell_angle_alpha   90.00000000
_cell_angle_beta   90.00000000
_cell_angle_gamma   90.00000000
_chemical_formula_structural   Pb3Sb
_chemical_formula_sum   'Pb3 Sb1'
_cell_volume   123.15927474
loop_
 _symmetry_equiv_pos_site_id
 _symmetry_equiv_pos_as_xyz
  1  'x, y, z'
loop_
 _atom_type_symbol
  Pb
  Sb
loop_
 _atom_site_type_symbol
 _atom_site_label
 _atom_site_symmetry_multiplicity
 _atom_site_fract_x
 _atom_site_fract_y
 _atom_site_fract_z
 _atom_site_occupancy
  Pb  Pb0  1  0.50000000  0.50000000  0.75844887  1
  Pb  Pb1  1  0.00000000  0.00000000  0.50000000  1
  Pb  Pb2  1  0.50000000  0.50000000  0.24155113  1
  Sb  Sb0  1  0.00000000  0.00000000  0.00000000  1
