# generated using pymatgen
data_2186_Ir8Pd16
_symmetry_space_group_name_H-M   'Fd -3 m'
_cell_length_a   8.17006709
_cell_length_b   8.17006709
_cell_length_c   8.17006709
_cell_angle_alpha   60.00000000
_cell_angle_beta   60.00000000
_cell_angle_gamma   60.00000000
_chemical_formula_structural   Ir8Pd16
_chemical_formula_sum   'Ir8 Pd16'
_cell_volume   385.62205991
loop_
 _symmetry_equiv_pos_site_id
 _symmetry_equiv_pos_as_xyz
  1  'x, y, z'
loop_
 _atom_type_symbol
  Ir
  Pd
loop_
 _atom_site_type_symbol
 _atom_site_label
 _atom_site_symmetry_multiplicity
 _atom_site_fract_x
 _atom_site_fract_y
 _atom_site_fract_z
 _atom_site_occupancy
  Ir  Ir0  1  0.71215968  0.86352095  0.71215968  1
  Ir  Ir1  1  0.36352095  0.21215968  0.71215968  1
  Ir  Ir2  1  0.71215968  0.21215968  0.36352095  1
  Ir  Ir3  1  0.71215968  0.21215968  0.71215968  1
  Ir  Ir4  1  0.28784032  0.13647905  0.28784032  1
  Ir  Ir5  1  0.63647905  0.78784032  0.28784032  1
  Ir  Ir6  1  0.28784032  0.78784032  0.63647905  1
  Ir  Ir7  1  0.28784032  0.78784032  0.28784032  1
  Pd  Pd0  1  0.50000000  0.00000000  0.50000000  1
  Pd  Pd1  1  0.50000000  0.00000000  1.00000000  1
  Pd  Pd2  1  0.00000000  0.00000000  0.50000000  1
  Pd  Pd3  1  0.50000000  0.50000000  0.50000000  1
  Pd  Pd4  1  0.30902256  0.80902256  0.94097744  1
  Pd  Pd5  1  0.94097744  0.80902256  0.30902256  1
  Pd  Pd6  1  0.94097744  0.80902256  0.94097744  1
  Pd  Pd7  1  0.30902256  0.44097744  0.30902256  1
  Pd  Pd8  1  0.30902256  0.44097744  0.94097744  1
  Pd  Pd9  1  0.94097744  0.44097744  0.30902256  1
  Pd  Pd10  1  0.69097744  0.19097744  0.05902256  1
  Pd  Pd11  1  0.05902256  0.19097744  0.69097744  1
  Pd  Pd12  1  0.05902256  0.19097744  0.05902256  1
  Pd  Pd13  1  0.69097744  0.55902256  0.69097744  1
  Pd  Pd14  1  0.69097744  0.55902256  0.05902256  1
  Pd  Pd15  1  0.05902256  0.55902256  0.69097744  1
