# generated using pymatgen
data_2191_Ba4In2
_symmetry_space_group_name_H-M   'I4/mcm'
_cell_length_a   7.24919602
_cell_length_b   7.24919602
_cell_length_c   7.24919602
_cell_angle_alpha   107.46410895
_cell_angle_beta   107.46410895
_cell_angle_gamma   113.56463646
_chemical_formula_structural   Ba4In2
_chemical_formula_sum   'Ba4 In2'
_cell_volume   292.12543635
loop_
 _symmetry_equiv_pos_site_id
 _symmetry_equiv_pos_as_xyz
  1  'x, y, z'
loop_
 _atom_type_symbol
  Ba
  In
loop_
 _atom_site_type_symbol
 _atom_site_label
 _atom_site_symmetry_multiplicity
 _atom_site_fract_x
 _atom_site_fract_y
 _atom_site_fract_z
 _atom_site_occupancy
  Ba  Ba0  1  0.31161971  0.18838029  0.50000000  1
  Ba  Ba1  1  0.68838029  0.81161971  0.50000000  1
  Ba  Ba2  1  0.18838029  0.68838029  0.87676058  1
  Ba  Ba3  1  0.81161971  0.31161971  0.12323942  1
  In  In0  1  0.75000000  0.75000000  0.00000000  1
  In  In1  1  0.25000000  0.25000000  0.00000000  1
