# generated using pymatgen
data_2192_Ga3Na
_symmetry_space_group_name_H-M   'P4/mmm'
_cell_length_a   3.03538566
_cell_length_b   3.03538566
_cell_length_c   8.76624906
_cell_angle_alpha   90.00000000
_cell_angle_beta   90.00000000
_cell_angle_gamma   90.00000000
_chemical_formula_structural   Ga3Na
_chemical_formula_sum   'Ga3 Na1'
_cell_volume   80.76841521
loop_
 _symmetry_equiv_pos_site_id
 _symmetry_equiv_pos_as_xyz
  1  'x, y, z'
loop_
 _atom_type_symbol
  Ga
  Na
loop_
 _atom_site_type_symbol
 _atom_site_label
 _atom_site_symmetry_multiplicity
 _atom_site_fract_x
 _atom_site_fract_y
 _atom_site_fract_z
 _atom_site_occupancy
  Ga  Ga0  1  0.50000000  0.50000000  0.72779686  1
  Ga  Ga1  1  0.00000000  0.00000000  0.50000000  1
  Ga  Ga2  1  0.50000000  0.50000000  0.27220314  1
  Na  Na0  1  0.00000000  0.00000000  0.00000000  1
