# generated using pymatgen
data_2197_SbGe3
_symmetry_space_group_name_H-M   'Immm'
_cell_length_a   5.72743966
_cell_length_b   5.72743966
_cell_length_c   5.72743966
_cell_angle_alpha   143.55517104
_cell_angle_beta   129.63840582
_cell_angle_gamma   63.74483232
_chemical_formula_structural   SbGe3
_chemical_formula_sum   'Ge3 Sb1'
_cell_volume   84.91352437
loop_
 _symmetry_equiv_pos_site_id
 _symmetry_equiv_pos_as_xyz
  1  'x, y, z'
loop_
 _atom_type_symbol
  Ge
  Sb
loop_
 _atom_site_type_symbol
 _atom_site_label
 _atom_site_symmetry_multiplicity
 _atom_site_fract_x
 _atom_site_fract_y
 _atom_site_fract_z
 _atom_site_occupancy
  Ge  Ge0  1  0.23943648  0.23943648  0.00000000  1
  Ge  Ge1  1  0.76056352  0.76056352  0.00000000  1
  Ge  Ge2  1  0.00000000  0.50000000  0.50000000  1
  Sb  Sb0  1  0.50000000  0.00000000  0.50000000  1
