# generated using pymatgen
data_2199_Al2Ta4
_symmetry_space_group_name_H-M   'Pnnm'
_cell_length_a   2.79251431
_cell_length_b   7.52258444
_cell_length_c   5.40122707
_cell_angle_alpha   90.00000000
_cell_angle_beta   90.00000000
_cell_angle_gamma   90.00000000
_chemical_formula_structural   Al2Ta4
_chemical_formula_sum   'Al2 Ta4'
_cell_volume   113.46317033
loop_
 _symmetry_equiv_pos_site_id
 _symmetry_equiv_pos_as_xyz
  1  'x, y, z'
loop_
 _atom_type_symbol
  Al
  Ta
loop_
 _atom_site_type_symbol
 _atom_site_label
 _atom_site_symmetry_multiplicity
 _atom_site_fract_x
 _atom_site_fract_y
 _atom_site_fract_z
 _atom_site_occupancy
  Al  Al0  1  0.00000000  0.00000000  0.00000000  1
  Al  Al1  1  0.50000000  0.50000000  0.50000000  1
  Ta  Ta0  1  0.00000000  0.20377175  0.55819571  1
  Ta  Ta1  1  0.00000000  0.79622825  0.44180429  1
  Ta  Ta2  1  0.50000000  0.70377175  0.94180429  1
  Ta  Ta3  1  0.50000000  0.29622825  0.05819571  1
