# generated using pymatgen
data_2204_Al2Cu6
_symmetry_space_group_name_H-M   'Pmmn'
_cell_length_a   4.22514289
_cell_length_b   4.53062970
_cell_length_c   5.18737492
_cell_angle_alpha   90.00000000
_cell_angle_beta   90.00000000
_cell_angle_gamma   90.00000000
_chemical_formula_structural   Al2Cu6
_chemical_formula_sum   'Al2 Cu6'
_cell_volume   99.29962457
loop_
 _symmetry_equiv_pos_site_id
 _symmetry_equiv_pos_as_xyz
  1  'x, y, z'
loop_
 _atom_type_symbol
  Al
  Cu
loop_
 _atom_site_type_symbol
 _atom_site_label
 _atom_site_symmetry_multiplicity
 _atom_site_fract_x
 _atom_site_fract_y
 _atom_site_fract_z
 _atom_site_occupancy
  Al  Al0  1  0.00000000  0.33541210  0.00000000  1
  Al  Al1  1  0.50000000  0.66458790  0.50000000  1
  Cu  Cu0  1  0.50000000  0.66601199  0.00000000  1
  Cu  Cu1  1  0.00000000  0.33398801  0.50000000  1
  Cu  Cu2  1  0.00000000  0.83578884  0.25110567  1
  Cu  Cu3  1  0.00000000  0.83578884  0.74889433  1
  Cu  Cu4  1  0.50000000  0.16421116  0.75110567  1
  Cu  Cu5  1  0.50000000  0.16421116  0.24889433  1
