# generated using pymatgen
data_2207_Ca2Cr2
_symmetry_space_group_name_H-M   'I4_1/amd'
_cell_length_a   5.99462640
_cell_length_b   5.99462640
_cell_length_c   5.99462640
_cell_angle_alpha   134.71419644
_cell_angle_beta   134.71419644
_cell_angle_gamma   65.97459948
_chemical_formula_structural   Ca2Cr2
_chemical_formula_sum   'Ca2 Cr2'
_cell_volume   107.12510197
loop_
 _symmetry_equiv_pos_site_id
 _symmetry_equiv_pos_as_xyz
  1  'x, y, z'
loop_
 _atom_type_symbol
  Ca
  Cr
loop_
 _atom_site_type_symbol
 _atom_site_label
 _atom_site_symmetry_multiplicity
 _atom_site_fract_x
 _atom_site_fract_y
 _atom_site_fract_z
 _atom_site_occupancy
  Ca  Ca0  1  0.00000000  0.00000000  0.00000000  1
  Ca  Ca1  1  0.25000000  0.75000000  0.50000000  1
  Cr  Cr0  1  0.50000000  0.50000000  0.00000000  1
  Cr  Cr1  1  0.75000000  0.25000000  0.50000000  1
