# generated using pymatgen
data_2209_Ag2Mn2
_symmetry_space_group_name_H-M   'P4/nmm'
_cell_length_a   2.81921474
_cell_length_b   2.81921474
_cell_length_c   8.01257196
_cell_angle_alpha   90.00000000
_cell_angle_beta   90.00000000
_cell_angle_gamma   90.00000000
_chemical_formula_structural   Ag2Mn2
_chemical_formula_sum   'Ag2 Mn2'
_cell_volume   63.68369558
loop_
 _symmetry_equiv_pos_site_id
 _symmetry_equiv_pos_as_xyz
  1  'x, y, z'
loop_
 _atom_type_symbol
  Ag
  Mn
loop_
 _atom_site_type_symbol
 _atom_site_label
 _atom_site_symmetry_multiplicity
 _atom_site_fract_x
 _atom_site_fract_y
 _atom_site_fract_z
 _atom_site_occupancy
  Ag  Ag0  1  0.25000000  0.25000000  0.13851346  1
  Ag  Ag1  1  0.75000000  0.75000000  0.86148654  1
  Mn  Mn0  1  0.25000000  0.25000000  0.60895396  1
  Mn  Mn1  1  0.75000000  0.75000000  0.39104604  1
