# generated using pymatgen
data_220_Cr8Rh
_symmetry_space_group_name_H-M   'I4/mmm'
_cell_length_a   6.29659895
_cell_length_b   6.29659895
_cell_length_c   8.67288761
_cell_angle_alpha   46.47300936
_cell_angle_beta   46.47300936
_cell_angle_gamma   87.05398129
_chemical_formula_structural   Cr8Rh
_chemical_formula_sum   'Cr8 Rh1'
_cell_volume   107.37278395
loop_
 _symmetry_equiv_pos_site_id
 _symmetry_equiv_pos_as_xyz
  1  'x, y, z'
loop_
 _atom_type_symbol
  Cr
  Rh
loop_
 _atom_site_type_symbol
 _atom_site_label
 _atom_site_symmetry_multiplicity
 _atom_site_fract_x
 _atom_site_fract_y
 _atom_site_fract_z
 _atom_site_occupancy
  Cr  Cr0  1  0.00000000  0.00000000  0.33550824  1
  Cr  Cr1  1  1.00000000  1.00000000  0.66449176  1
  Cr  Cr2  1  0.33550824  0.66449176  0.00000000  1
  Cr  Cr3  1  0.32364923  0.67635077  0.32364923  1
  Cr  Cr4  1  0.32364923  0.67635077  0.67635077  1
  Cr  Cr5  1  0.66449176  0.33550824  1.00000000  1
  Cr  Cr6  1  0.67635077  0.32364923  0.32364923  1
  Cr  Cr7  1  0.67635077  0.32364923  0.67635077  1
  Rh  Rh0  1  0.00000000  0.00000000  0.00000000  1
