# generated using pymatgen
data_2259_Cr4Nb2
_symmetry_space_group_name_H-M   'Pnnm'
_cell_length_a   2.57541768
_cell_length_b   7.41260054
_cell_length_c   4.35254230
_cell_angle_alpha   90.00000000
_cell_angle_beta   90.00000000
_cell_angle_gamma   90.00000000
_chemical_formula_structural   Cr4Nb2
_chemical_formula_sum   'Cr4 Nb2'
_cell_volume   83.09239370
loop_
 _symmetry_equiv_pos_site_id
 _symmetry_equiv_pos_as_xyz
  1  'x, y, z'
loop_
 _atom_type_symbol
  Cr
  Nb
loop_
 _atom_site_type_symbol
 _atom_site_label
 _atom_site_symmetry_multiplicity
 _atom_site_fract_x
 _atom_site_fract_y
 _atom_site_fract_z
 _atom_site_occupancy
  Cr  Cr0  1  0.20357152  0.33492481  0.00000000  1
  Cr  Cr1  1  0.29642848  0.83492481  0.50000000  1
  Cr  Cr2  1  0.70357152  0.16507519  0.50000000  1
  Cr  Cr3  1  0.79642848  0.66507519  0.00000000  1
  Nb  Nb0  1  0.00000000  0.00000000  0.00000000  1
  Nb  Nb1  1  0.50000000  0.50000000  0.50000000  1
