# generated using pymatgen
data_225_AlPd2
_symmetry_space_group_name_H-M   'I4/mmm'
_cell_length_a   5.43335367
_cell_length_b   5.43335367
_cell_length_c   4.19721610
_cell_angle_alpha   90.00000000
_cell_angle_beta   90.00000000
_cell_angle_gamma   134.52368147
_chemical_formula_structural   AlPd2
_chemical_formula_sum   'Al2 Pd4'
_cell_volume   88.34111273
loop_
 _symmetry_equiv_pos_site_id
 _symmetry_equiv_pos_as_xyz
  1  'x, y, z'
loop_
 _atom_type_symbol
  Al
  Pd
loop_
 _atom_site_type_symbol
 _atom_site_label
 _atom_site_symmetry_multiplicity
 _atom_site_fract_x
 _atom_site_fract_y
 _atom_site_fract_z
 _atom_site_occupancy
  Al  Al0  1  0.24878593  0.24878593  0.25000000  1
  Al  Al1  1  0.75121407  0.75121407  0.75000000  1
  Pd  Pd0  1  0.59936100  0.89903285  0.25000000  1
  Pd  Pd1  1  0.40063900  0.10096715  0.75000000  1
  Pd  Pd2  1  0.89903285  0.59936100  0.25000000  1
  Pd  Pd3  1  0.10096715  0.40063900  0.75000000  1
