# generated using pymatgen
data_226_Al4Pb2
_symmetry_space_group_name_H-M   'Pnnm'
_cell_length_a   4.58119168
_cell_length_b   5.10885233
_cell_length_c   6.90771461
_cell_angle_alpha   90.00000000
_cell_angle_beta   90.00000000
_cell_angle_gamma   90.00000000
_chemical_formula_structural   Al4Pb2
_chemical_formula_sum   'Al4 Pb2'
_cell_volume   161.67251695
loop_
 _symmetry_equiv_pos_site_id
 _symmetry_equiv_pos_as_xyz
  1  'x, y, z'
loop_
 _atom_type_symbol
  Al
  Pb
loop_
 _atom_site_type_symbol
 _atom_site_label
 _atom_site_symmetry_multiplicity
 _atom_site_fract_x
 _atom_site_fract_y
 _atom_site_fract_z
 _atom_site_occupancy
  Al  Al0  1  0.00000000  0.20003819  0.61534368  1
  Al  Al1  1  0.00000000  0.79996181  0.38465632  1
  Al  Al2  1  0.50000000  0.70003819  0.88465632  1
  Al  Al3  1  0.50000000  0.29996181  0.11534368  1
  Pb  Pb0  1  0.00000000  0.00000000  0.00000000  1
  Pb  Pb1  1  0.50000000  0.50000000  0.50000000  1
