# generated using pymatgen
data_2276_Ag4Al6
_symmetry_space_group_name_H-M   'R -3 c'
_cell_length_a   5.96421781
_cell_length_b   5.96421793
_cell_length_c   6.96339061
_cell_angle_alpha   115.35689443
_cell_angle_beta   64.64311227
_cell_angle_gamma   119.99999940
_chemical_formula_structural   Ag4Al6
_chemical_formula_sum   'Ag4 Al6'
_cell_volume   186.45113458
loop_
 _symmetry_equiv_pos_site_id
 _symmetry_equiv_pos_as_xyz
  1  'x, y, z'
loop_
 _atom_type_symbol
  Ag
  Al
loop_
 _atom_site_type_symbol
 _atom_site_label
 _atom_site_symmetry_multiplicity
 _atom_site_fract_x
 _atom_site_fract_y
 _atom_site_fract_z
 _atom_site_occupancy
  Ag  Ag0  1  0.67726288  0.32273712  0.96821136  1
  Ag  Ag1  1  0.82273712  0.17726288  0.53178864  1
  Ag  Ag2  1  0.17726288  0.82273712  0.46821136  1
  Ag  Ag3  1  0.32273712  0.67726288  0.03178864  1
  Al  Al0  1  0.25000000  0.14561895  0.25000000  1
  Al  Al1  1  0.85438105  0.35438105  0.25000000  1
  Al  Al2  1  0.64561895  0.75000000  0.25000000  1
  Al  Al3  1  0.35438105  0.25000000  0.75000000  1
  Al  Al4  1  0.14561895  0.64561895  0.75000000  1
  Al  Al5  1  0.75000000  0.85438105  0.75000000  1
