# generated using pymatgen
data_2277_Ir2Ta6
_symmetry_space_group_name_H-M   'Pmmn'
_cell_length_a   5.44918103
_cell_length_b   4.81700835
_cell_length_c   5.30529789
_cell_angle_alpha   90.00000000
_cell_angle_beta   90.00000000
_cell_angle_gamma   90.00000000
_chemical_formula_structural   Ir2Ta6
_chemical_formula_sum   'Ir2 Ta6'
_cell_volume   139.25744076
loop_
 _symmetry_equiv_pos_site_id
 _symmetry_equiv_pos_as_xyz
  1  'x, y, z'
loop_
 _atom_type_symbol
  Ir
  Ta
loop_
 _atom_site_type_symbol
 _atom_site_label
 _atom_site_symmetry_multiplicity
 _atom_site_fract_x
 _atom_site_fract_y
 _atom_site_fract_z
 _atom_site_occupancy
  Ir  Ir0  1  0.00000000  0.00000000  0.65614469  1
  Ir  Ir1  1  0.50000000  0.50000000  0.34385531  1
  Ta  Ta0  1  0.00000000  0.50000000  0.38608927  1
  Ta  Ta1  1  0.24696212  0.00000000  0.13569406  1
  Ta  Ta2  1  0.25303788  0.50000000  0.86430594  1
  Ta  Ta3  1  0.50000000  0.00000000  0.61391073  1
  Ta  Ta4  1  0.75303788  0.00000000  0.13569406  1
  Ta  Ta5  1  0.74696212  0.50000000  0.86430594  1
