# generated using pymatgen
data_2285_Pb4I8
_symmetry_space_group_name_H-M   'R -3 m'
_cell_length_a   29.04531081
_cell_length_b   29.04531076
_cell_length_c   29.04530994
_cell_angle_alpha   9.30575071
_cell_angle_beta   9.30575133
_cell_angle_gamma   9.30575029
_chemical_formula_structural   Pb4I8
_chemical_formula_sum   'I8 Pb4'
_cell_volume   556.09346361
loop_
 _symmetry_equiv_pos_site_id
 _symmetry_equiv_pos_as_xyz
  1  'x, y, z'
loop_
 _atom_type_symbol
  I
  Pb
loop_
 _atom_site_type_symbol
 _atom_site_label
 _atom_site_symmetry_multiplicity
 _atom_site_fract_x
 _atom_site_fract_y
 _atom_site_fract_z
 _atom_site_occupancy
  Pb  Pb0  1  0.08333289  0.08333289  0.08333289  1
  Pb  Pb1  1  0.00000000  0.00000000  0.00000000  1
  Pb  Pb2  1  0.91666711  0.91666711  0.91666711  1
  Pb  Pb3  1  0.50000000  0.50000000  0.50000000  1
  I  I0  1  0.35447238  0.35447238  0.35447238  1
  I  I1  1  0.18781101  0.18781101  0.18781101  1
  I  I2  1  0.81218899  0.81218899  0.81218899  1
  I  I3  1  0.27114319  0.27114319  0.27114319  1
  I  I4  1  0.64552762  0.64552762  0.64552762  1
  I  I5  1  0.72885681  0.72885681  0.72885681  1
  I  I6  1  0.56219184  0.56219184  0.56219184  1
  I  I7  1  0.43780816  0.43780816  0.43780816  1
