# generated using pymatgen
data_2303_Fe5Ga4
_symmetry_space_group_name_H-M   'I4/mmm'
_cell_length_a   5.93373715
_cell_length_b   5.93373715
_cell_length_c   5.93373715
_cell_angle_alpha   95.59767795
_cell_angle_beta   95.59767795
_cell_angle_gamma   143.60203451
_chemical_formula_structural   Fe5Ga4
_chemical_formula_sum   'Fe5 Ga4'
_cell_volume   117.77109780
loop_
 _symmetry_equiv_pos_site_id
 _symmetry_equiv_pos_as_xyz
  1  'x, y, z'
loop_
 _atom_type_symbol
  Fe
  Ga
loop_
 _atom_site_type_symbol
 _atom_site_label
 _atom_site_symmetry_multiplicity
 _atom_site_fract_x
 _atom_site_fract_y
 _atom_site_fract_z
 _atom_site_occupancy
  Fe  Fe0  1  0.00000000  0.00000000  0.00000000  1
  Fe  Fe1  1  0.66613328  0.33386672  0.00000000  1
  Fe  Fe2  1  0.33386672  0.66613328  0.00000000  1
  Fe  Fe3  1  0.33386672  0.33386672  0.66773343  1
  Fe  Fe4  1  0.66613328  0.66613328  0.33226657  1
  Ga  Ga0  1  0.68726632  1.00000000  0.68726632  1
  Ga  Ga1  1  0.31273368  0.00000000  0.31273368  1
  Ga  Ga2  1  0.00000000  0.31273368  0.31273368  1
  Ga  Ga3  1  1.00000000  0.68726632  0.68726632  1
