# generated using pymatgen
data_230_Cu7Pt5
_symmetry_space_group_name_H-M   'P1'
_cell_length_a   4.63714680
_cell_length_b   8.08972946
_cell_length_c   4.64404111
_cell_angle_alpha   84.17164113
_cell_angle_beta   99.57781887
_cell_angle_gamma   106.83319503
_chemical_formula_structural   Cu7Pt5
_chemical_formula_sum   'Cu7 Pt5'
_cell_volume   164.16099939
loop_
 _symmetry_equiv_pos_site_id
 _symmetry_equiv_pos_as_xyz
  1  'x, y, z'
loop_
 _atom_type_symbol
  Cu
  Pt
loop_
 _atom_site_type_symbol
 _atom_site_label
 _atom_site_symmetry_multiplicity
 _atom_site_fract_x
 _atom_site_fract_y
 _atom_site_fract_z
 _atom_site_occupancy
  Cu  Cu0  1  0.00545711  0.00499481  0.00214041  1
  Cu  Cu1  1  0.58298041  0.08737742  0.25117261  1
  Cu  Cu2  1  0.16704627  0.16732764  0.49426863  1
  Cu  Cu3  1  0.33197171  0.32821610  0.00294047  1
  Cu  Cu4  1  0.91558008  0.41342621  0.24999962  1
  Cu  Cu5  1  0.08238543  0.58164205  0.75019242  1
  Cu  Cu6  1  0.24835705  0.75002082  0.25055424  1
  Pt  Pt0  1  0.76295571  0.25271150  0.75623014  1
  Pt  Pt1  1  0.48564434  0.49378583  0.49450377  1
  Pt  Pt2  1  0.66913697  0.66168757  0.00020595  1
  Pt  Pt3  1  0.83576426  0.83802784  0.49137697  1
  Pt  Pt4  1  0.41272066  0.92078220  0.75641477  1
