# generated using pymatgen
data_2312_In6Mn18
_symmetry_space_group_name_H-M   'Pmmn'
_cell_length_a   4.62853991
_cell_length_b   5.51234448
_cell_length_c   13.23503115
_cell_angle_alpha   90.00000000
_cell_angle_beta   90.00000000
_cell_angle_gamma   90.00000000
_chemical_formula_structural   In6Mn18
_chemical_formula_sum   'In6 Mn18'
_cell_volume   337.67999328
loop_
 _symmetry_equiv_pos_site_id
 _symmetry_equiv_pos_as_xyz
  1  'x, y, z'
loop_
 _atom_type_symbol
  In
  Mn
loop_
 _atom_site_type_symbol
 _atom_site_label
 _atom_site_symmetry_multiplicity
 _atom_site_fract_x
 _atom_site_fract_y
 _atom_site_fract_z
 _atom_site_occupancy
  In  In0  1  0.98093436  0.25000000  0.75000000  1
  In  In1  1  0.68706667  0.25000000  0.41083057  1
  In  In2  1  0.68706667  0.25000000  0.08916943  1
  In  In3  1  0.01906564  0.75000000  0.25000000  1
  In  In4  1  0.31293333  0.75000000  0.91083057  1
  In  In5  1  0.31293333  0.75000000  0.58916943  1
  Mn  Mn0  1  0.18483061  0.99629783  0.41908670  1
  Mn  Mn1  1  0.18483061  0.99629783  0.08091330  1
  Mn  Mn2  1  0.47806587  0.00954480  0.75000000  1
  Mn  Mn3  1  0.52193413  0.99045520  0.25000000  1
  Mn  Mn4  1  0.81516939  0.00370217  0.91908670  1
  Mn  Mn5  1  0.81516939  0.00370217  0.58091330  1
  Mn  Mn6  1  0.09594515  0.25000000  0.25000000  1
  Mn  Mn7  1  0.32414423  0.25000000  0.91846957  1
  Mn  Mn8  1  0.32414423  0.25000000  0.58153043  1
  Mn  Mn9  1  0.18483061  0.50370217  0.41908670  1
  Mn  Mn10  1  0.18483061  0.50370217  0.08091330  1
  Mn  Mn11  1  0.47806587  0.49045520  0.75000000  1
  Mn  Mn12  1  0.52193413  0.50954480  0.25000000  1
  Mn  Mn13  1  0.81516939  0.49629783  0.91908670  1
  Mn  Mn14  1  0.81516939  0.49629783  0.58091330  1
  Mn  Mn15  1  0.90405485  0.75000000  0.75000000  1
  Mn  Mn16  1  0.67585577  0.75000000  0.41846957  1
  Mn  Mn17  1  0.67585577  0.75000000  0.08153043  1
