# generated using pymatgen
data_2313_Ac4Bi6
_symmetry_space_group_name_H-M   'R -3 c'
_cell_length_a   8.23293019
_cell_length_b   8.23293149
_cell_length_c   8.77782224
_cell_angle_alpha   117.96694788
_cell_angle_beta   62.03305700
_cell_angle_gamma   119.99999913
_chemical_formula_structural   Ac4Bi6
_chemical_formula_sum   'Ac4 Bi6'
_cell_volume   433.17580819
loop_
 _symmetry_equiv_pos_site_id
 _symmetry_equiv_pos_as_xyz
  1  'x, y, z'
loop_
 _atom_type_symbol
  Ac
  Bi
loop_
 _atom_site_type_symbol
 _atom_site_label
 _atom_site_symmetry_multiplicity
 _atom_site_fract_x
 _atom_site_fract_y
 _atom_site_fract_z
 _atom_site_occupancy
  Ac  Ac0  1  0.62421300  0.37578700  0.12736101  1
  Ac  Ac1  1  0.87578700  0.12421300  0.37263899  1
  Ac  Ac2  1  0.12421300  0.87578700  0.62736101  1
  Ac  Ac3  1  0.37578700  0.62421300  0.87263899  1
  Bi  Bi0  1  0.25000000  0.98962251  0.25000000  1
  Bi  Bi1  1  0.01037749  0.51037749  0.25000000  1
  Bi  Bi2  1  0.48962251  0.75000000  0.25000000  1
  Bi  Bi3  1  0.51037749  0.25000000  0.75000000  1
  Bi  Bi4  1  0.98962251  0.48962251  0.75000000  1
  Bi  Bi5  1  0.75000000  0.01037749  0.75000000  1
