# generated using pymatgen
data_2314_Sn2W
_symmetry_space_group_name_H-M   'I4/mmm'
_cell_length_a   5.22614665
_cell_length_b   5.22614665
_cell_length_c   7.23447137
_cell_angle_alpha   69.75589647
_cell_angle_beta   69.75589647
_cell_angle_gamma   40.51065064
_chemical_formula_structural   Sn2W
_chemical_formula_sum   'Sn4 W2'
_cell_volume   119.30454447
loop_
 _symmetry_equiv_pos_site_id
 _symmetry_equiv_pos_as_xyz
  1  'x, y, z'
loop_
 _atom_type_symbol
  Sn
  W
loop_
 _atom_site_type_symbol
 _atom_site_label
 _atom_site_symmetry_multiplicity
 _atom_site_fract_x
 _atom_site_fract_y
 _atom_site_fract_z
 _atom_site_occupancy
  Sn  Sn0  1  0.96487034  0.96487034  0.05929116  1
  Sn  Sn1  1  0.64626623  0.64626623  0.71875707  1
  Sn  Sn2  1  0.64624077  0.64624077  0.21848662  1
  Sn  Sn3  1  0.96484488  0.96484488  0.55902070  1
  W  W0  1  0.30522830  0.30522830  0.38887362  1
  W  W1  1  0.30588282  0.30588282  0.88890415  1
