# generated using pymatgen
data_2316_VBr2
_symmetry_space_group_name_H-M   'I4/mmm'
_cell_length_a   6.64042474
_cell_length_b   6.64042474
_cell_length_c   6.64042474
_cell_angle_alpha   150.59295564
_cell_angle_beta   150.56695030
_cell_angle_gamma   42.09076005
_chemical_formula_structural   VBr2
_chemical_formula_sum   'Br2 V1'
_cell_volume   70.48315350
loop_
 _symmetry_equiv_pos_site_id
 _symmetry_equiv_pos_as_xyz
  1  'x, y, z'
loop_
 _atom_type_symbol
  Br
  V
loop_
 _atom_site_type_symbol
 _atom_site_label
 _atom_site_symmetry_multiplicity
 _atom_site_fract_x
 _atom_site_fract_y
 _atom_site_fract_z
 _atom_site_occupancy
  Br  Br0  1  0.62685202  0.62685202  0.00000000  1
  Br  Br1  1  0.37314798  0.37314798  0.00000000  1
  V  V0  1  0.00000000  0.00000000  0.00000000  1
