# generated using pymatgen
data_2324_IrTa2
_symmetry_space_group_name_H-M   'Immm'
_cell_length_a   3.00133486
_cell_length_b   9.45121414
_cell_length_c   3.60465817
_cell_angle_alpha   90.00000000
_cell_angle_beta   90.00000000
_cell_angle_gamma   90.00000000
_chemical_formula_structural   IrTa2
_chemical_formula_sum   'Ir2 Ta4'
_cell_volume   102.25066534
loop_
 _symmetry_equiv_pos_site_id
 _symmetry_equiv_pos_as_xyz
  1  'x, y, z'
loop_
 _atom_type_symbol
  Ir
  Ta
loop_
 _atom_site_type_symbol
 _atom_site_label
 _atom_site_symmetry_multiplicity
 _atom_site_fract_x
 _atom_site_fract_y
 _atom_site_fract_z
 _atom_site_occupancy
  Ir  Ir0  1  0.00000000  0.00000000  0.00000000  1
  Ir  Ir1  1  0.50000000  0.50000000  0.50000000  1
  Ta  Ta0  1  0.99842655  0.33829806  0.00000000  1
  Ta  Ta1  1  0.50157345  0.83829806  0.50000000  1
  Ta  Ta2  1  0.49842655  0.16170194  0.50000000  1
  Ta  Ta3  1  0.00157345  0.66170194  0.00000000  1
