# generated using pymatgen
data_2332_Ir5Na
_symmetry_space_group_name_H-M   'Amm2'
_cell_length_a   7.42595212
_cell_length_b   7.42595212
_cell_length_c   4.48762636
_cell_angle_alpha   90.00000000
_cell_angle_beta   90.00000000
_cell_angle_gamma   158.74542946
_chemical_formula_structural   Ir5Na
_chemical_formula_sum   'Ir5 Na1'
_cell_volume   89.71061361
loop_
 _symmetry_equiv_pos_site_id
 _symmetry_equiv_pos_as_xyz
  1  'x, y, z'
loop_
 _atom_type_symbol
  Ir
  Na
loop_
 _atom_site_type_symbol
 _atom_site_label
 _atom_site_symmetry_multiplicity
 _atom_site_fract_x
 _atom_site_fract_y
 _atom_site_fract_z
 _atom_site_occupancy
  Ir  Ir0  1  0.00330343  0.99669657  0.00000000  1
  Ir  Ir1  1  0.32924567  0.67075433  0.00000000  1
  Ir  Ir2  1  0.66805819  0.33194181  0.00000000  1
  Ir  Ir3  1  0.43885846  0.56114154  0.50000000  1
  Ir  Ir4  1  0.78255172  0.21744828  0.50000000  1
  Na  Na0  1  0.11131586  0.88868414  0.50000000  1
