# generated using pymatgen
data_2341_Ga4Pt4
_symmetry_space_group_name_H-M   'P2_13'
_cell_length_a   4.97339521
_cell_length_b   4.97339521
_cell_length_c   4.97339521
_cell_angle_alpha   90.00000000
_cell_angle_beta   90.00000000
_cell_angle_gamma   90.00000000
_chemical_formula_structural   Ga4Pt4
_chemical_formula_sum   'Ga4 Pt4'
_cell_volume   123.01523914
loop_
 _symmetry_equiv_pos_site_id
 _symmetry_equiv_pos_as_xyz
  1  'x, y, z'
loop_
 _atom_type_symbol
  Ga
  Pt
loop_
 _atom_site_type_symbol
 _atom_site_label
 _atom_site_symmetry_multiplicity
 _atom_site_fract_x
 _atom_site_fract_y
 _atom_site_fract_z
 _atom_site_occupancy
  Ga  Ga0  1  0.40753719  0.40753719  0.40753719  1
  Ga  Ga1  1  0.09246281  0.59246281  0.90753719  1
  Ga  Ga2  1  0.59246281  0.90753719  0.09246281  1
  Ga  Ga3  1  0.90753719  0.09246281  0.59246281  1
  Pt  Pt0  1  0.10291731  0.10291731  0.10291731  1
  Pt  Pt1  1  0.39708269  0.89708269  0.60291731  1
  Pt  Pt2  1  0.89708269  0.60291731  0.39708269  1
  Pt  Pt3  1  0.60291731  0.39708269  0.89708269  1
