# generated using pymatgen
data_2342_Cu4Ge2
_symmetry_space_group_name_H-M   'I4_1/amd'
_cell_length_a   9.43025686
_cell_length_b   9.43025686
_cell_length_c   9.43025686
_cell_angle_alpha   160.85081955
_cell_angle_beta   160.85081955
_cell_angle_gamma   27.21014974
_chemical_formula_structural   Cu4Ge2
_chemical_formula_sum   'Cu4 Ge2'
_cell_volume   90.20256160
loop_
 _symmetry_equiv_pos_site_id
 _symmetry_equiv_pos_as_xyz
  1  'x, y, z'
loop_
 _atom_type_symbol
  Cu
  Ge
loop_
 _atom_site_type_symbol
 _atom_site_label
 _atom_site_symmetry_multiplicity
 _atom_site_fract_x
 _atom_site_fract_y
 _atom_site_fract_z
 _atom_site_occupancy
  Cu  Cu0  1  0.57269430  0.57269430  0.00000000  1
  Cu  Cu1  1  0.67730570  0.17730570  0.50000000  1
  Cu  Cu2  1  0.42730570  0.42730570  0.00000000  1
  Cu  Cu3  1  0.82269430  0.32269430  0.50000000  1
  Ge  Ge0  1  0.00000000  0.00000000  0.00000000  1
  Ge  Ge1  1  0.25000000  0.75000000  0.50000000  1
