# generated using pymatgen
data_2343_Ni2Sn4
_symmetry_space_group_name_H-M   'I4_1/amd'
_cell_length_a   10.85132779
_cell_length_b   10.85132779
_cell_length_c   10.85132779
_cell_angle_alpha   162.38090268
_cell_angle_beta   162.38090268
_cell_angle_gamma   25.01736454
_chemical_formula_structural   Ni2Sn4
_chemical_formula_sum   'Ni2 Sn4'
_cell_volume   117.03413609
loop_
 _symmetry_equiv_pos_site_id
 _symmetry_equiv_pos_as_xyz
  1  'x, y, z'
loop_
 _atom_type_symbol
  Ni
  Sn
loop_
 _atom_site_type_symbol
 _atom_site_label
 _atom_site_symmetry_multiplicity
 _atom_site_fract_x
 _atom_site_fract_y
 _atom_site_fract_z
 _atom_site_occupancy
  Ni  Ni0  1  0.00000000  0.00000000  0.00000000  1
  Ni  Ni1  1  0.25000000  0.75000000  0.50000000  1
  Sn  Sn0  1  0.56783156  0.56783156  0.00000000  1
  Sn  Sn1  1  0.68216844  0.18216844  0.50000000  1
  Sn  Sn2  1  0.43216844  0.43216844  0.00000000  1
  Sn  Sn3  1  0.81783156  0.31783156  0.50000000  1
