# generated using pymatgen
data_2349_Fe4Mo16
_symmetry_space_group_name_H-M   'I-43m'
_cell_length_a   7.51038482
_cell_length_b   7.51038482
_cell_length_c   7.51038482
_cell_angle_alpha   109.47122063
_cell_angle_beta   109.47122063
_cell_angle_gamma   109.47122063
_chemical_formula_structural   Fe4Mo16
_chemical_formula_sum   'Fe4 Mo16'
_cell_volume   326.11042345
loop_
 _symmetry_equiv_pos_site_id
 _symmetry_equiv_pos_as_xyz
  1  'x, y, z'
loop_
 _atom_type_symbol
  Fe
  Mo
loop_
 _atom_site_type_symbol
 _atom_site_label
 _atom_site_symmetry_multiplicity
 _atom_site_fract_x
 _atom_site_fract_y
 _atom_site_fract_z
 _atom_site_occupancy
  Fe  Fe0  1  0.68428206  0.00000000  0.00000000  1
  Fe  Fe1  1  0.31571794  0.31571794  0.31571794  1
  Fe  Fe2  1  1.00000000  1.00000000  0.68428206  1
  Fe  Fe3  1  0.00000000  0.68428206  0.00000000  1
  Mo  Mo0  1  0.37482795  0.00000000  0.00000000  1
  Mo  Mo1  1  0.62517205  0.62517205  0.62517205  1
  Mo  Mo2  1  1.00000000  0.00000000  0.37482795  1
  Mo  Mo3  1  1.00000000  0.37482795  0.00000000  1
  Mo  Mo4  1  0.32077828  0.32077828  0.00000000  1
  Mo  Mo5  1  0.67922172  0.67922172  0.00000000  1
  Mo  Mo6  1  0.32077828  0.00000000  0.32077828  1
  Mo  Mo7  1  0.67922172  0.00000000  0.67922172  1
  Mo  Mo8  1  1.00000000  0.67922172  0.67922172  1
  Mo  Mo9  1  0.00000000  0.32077828  0.32077828  1
  Mo  Mo10  1  0.74988439  0.24988439  0.50000000  1
  Mo  Mo11  1  0.25011561  0.75011561  0.50000000  1
  Mo  Mo12  1  0.24988439  0.50000000  0.74988439  1
  Mo  Mo13  1  0.75011561  0.50000000  0.25011561  1
  Mo  Mo14  1  0.50000000  0.25011561  0.75011561  1
  Mo  Mo15  1  0.50000000  0.74988439  0.24988439  1
