# generated using pymatgen
data_2351_Ni4Sb3
_symmetry_space_group_name_H-M   'I4/mmm'
_cell_length_a   11.22099543
_cell_length_b   11.22099543
_cell_length_c   11.22099543
_cell_angle_alpha   163.05923023
_cell_angle_beta   163.05923023
_cell_angle_gamma   24.04679284
_chemical_formula_structural   Ni4Sb3
_chemical_formula_sum   'Ni4 Sb3'
_cell_volume   119.92662588
loop_
 _symmetry_equiv_pos_site_id
 _symmetry_equiv_pos_as_xyz
  1  'x, y, z'
loop_
 _atom_type_symbol
  Ni
  Sb
loop_
 _atom_site_type_symbol
 _atom_site_label
 _atom_site_symmetry_multiplicity
 _atom_site_fract_x
 _atom_site_fract_y
 _atom_site_fract_z
 _atom_site_occupancy
  Ni  Ni0  1  0.88092867  0.88092867  0.00000000  1
  Ni  Ni1  1  0.11907133  0.11907133  0.00000000  1
  Ni  Ni2  1  0.55994621  0.55994621  0.00000000  1
  Ni  Ni3  1  0.44005379  0.44005379  0.00000000  1
  Sb  Sb0  1  0.00000000  0.00000000  0.00000000  1
  Sb  Sb1  1  0.67704379  0.67704379  0.00000000  1
  Sb  Sb2  1  0.32295621  0.32295621  0.00000000  1
