# generated using pymatgen
data_2357_K6Ge18
_symmetry_space_group_name_H-M   'Pmmn'
_cell_length_a   7.07313073
_cell_length_b   6.81513468
_cell_length_c   14.42447895
_cell_angle_alpha   90.00000000
_cell_angle_beta   90.00000000
_cell_angle_gamma   90.00000000
_chemical_formula_structural   K6Ge18
_chemical_formula_sum   'Ge18 K6'
_cell_volume   695.32246649
loop_
 _symmetry_equiv_pos_site_id
 _symmetry_equiv_pos_as_xyz
  1  'x, y, z'
loop_
 _atom_type_symbol
  Ge
  K
loop_
 _atom_site_type_symbol
 _atom_site_label
 _atom_site_symmetry_multiplicity
 _atom_site_fract_x
 _atom_site_fract_y
 _atom_site_fract_z
 _atom_site_occupancy
  Ge  Ge0  1  0.21466607  0.04527724  0.37954373  1
  Ge  Ge1  1  0.21466607  0.04527724  0.12045627  1
  Ge  Ge2  1  0.56281535  0.06676440  0.75000000  1
  Ge  Ge3  1  0.43718465  0.93323560  0.25000000  1
  Ge  Ge4  1  0.78533393  0.95472276  0.87954373  1
  Ge  Ge5  1  0.78533393  0.95472276  0.62045627  1
  Ge  Ge6  1  0.04554575  0.25000000  0.25000000  1
  Ge  Ge7  1  0.27452559  0.25000000  0.98239735  1
  Ge  Ge8  1  0.27452559  0.25000000  0.51760265  1
  Ge  Ge9  1  0.21466607  0.45472276  0.37954373  1
  Ge  Ge10  1  0.21466607  0.45472276  0.12045627  1
  Ge  Ge11  1  0.56281535  0.43323560  0.75000000  1
  Ge  Ge12  1  0.43718465  0.56676440  0.25000000  1
  Ge  Ge13  1  0.78533393  0.54527724  0.87954373  1
  Ge  Ge14  1  0.78533393  0.54527724  0.62045627  1
  Ge  Ge15  1  0.95445425  0.75000000  0.75000000  1
  Ge  Ge16  1  0.72547441  0.75000000  0.48239735  1
  Ge  Ge17  1  0.72547441  0.75000000  0.01760265  1
  K  K0  1  0.08992792  0.25000000  0.75000000  1
  K  K1  1  0.71918038  0.25000000  0.41618056  1
  K  K2  1  0.71918038  0.25000000  0.08381944  1
  K  K3  1  0.91007208  0.75000000  0.25000000  1
  K  K4  1  0.28081962  0.75000000  0.91618056  1
  K  K5  1  0.28081962  0.75000000  0.58381944  1
