# generated using pymatgen
data_2360_Ir4Na2
_symmetry_space_group_name_H-M   'Pnnm'
_cell_length_a   4.71950903
_cell_length_b   2.64413702
_cell_length_c   7.71431226
_cell_angle_alpha   90.00000000
_cell_angle_beta   90.00000000
_cell_angle_gamma   90.00000000
_chemical_formula_structural   Ir4Na2
_chemical_formula_sum   'Ir4 Na2'
_cell_volume   96.26712288
loop_
 _symmetry_equiv_pos_site_id
 _symmetry_equiv_pos_as_xyz
  1  'x, y, z'
loop_
 _atom_type_symbol
  Ir
  Na
loop_
 _atom_site_type_symbol
 _atom_site_label
 _atom_site_symmetry_multiplicity
 _atom_site_fract_x
 _atom_site_fract_y
 _atom_site_fract_z
 _atom_site_occupancy
  Ir  Ir0  1  0.00000000  0.23501251  0.64872038  1
  Ir  Ir1  1  0.00000000  0.76498749  0.35127962  1
  Ir  Ir2  1  0.50000000  0.73501251  0.85127962  1
  Ir  Ir3  1  0.50000000  0.26498749  0.14872038  1
  Na  Na0  1  0.00000000  0.00000000  0.00000000  1
  Na  Na1  1  0.50000000  0.50000000  0.50000000  1
