# generated using pymatgen
data_2366_Cu7Pt5
_symmetry_space_group_name_H-M   'P1'
_cell_length_a   4.66602730
_cell_length_b   6.53844862
_cell_length_c   5.99464936
_cell_angle_alpha   111.69606986
_cell_angle_beta   74.99536386
_cell_angle_gamma   89.79277516
_chemical_formula_structural   Cu7Pt5
_chemical_formula_sum   'Cu7 Pt5'
_cell_volume   163.12988060
loop_
 _symmetry_equiv_pos_site_id
 _symmetry_equiv_pos_as_xyz
  1  'x, y, z'
loop_
 _atom_type_symbol
  Cu
  Pt
loop_
 _atom_site_type_symbol
 _atom_site_label
 _atom_site_symmetry_multiplicity
 _atom_site_fract_x
 _atom_site_fract_y
 _atom_site_fract_z
 _atom_site_occupancy
  Cu  Cu0  1  0.99790005  0.00227309  0.00177463  1
  Cu  Cu1  1  0.41951696  0.08782892  0.25311187  1
  Cu  Cu2  1  0.83050101  0.17239687  0.50373720  1
  Cu  Cu3  1  0.24787826  0.25219001  0.74662268  1
  Cu  Cu4  1  0.67018525  0.33261019  0.99918337  1
  Cu  Cu5  1  0.50071358  0.49268631  0.49913852  1
  Cu  Cu6  1  0.91678935  0.57705413  0.74663423  1
  Pt  Pt0  1  0.08274369  0.40231696  0.25174519  1
  Pt  Pt1  1  0.33555314  0.65645178  0.98701828  1
  Pt  Pt2  1  0.75092000  0.75281838  0.24581757  1
  Pt  Pt3  1  0.16566927  0.84121103  0.50451952  1
  Pt  Pt4  1  0.58162945  0.93016233  0.76069692  1
