# generated using pymatgen
data_2379_Sn2W4
_symmetry_space_group_name_H-M   'I4_1/amd'
_cell_length_a   12.09973367
_cell_length_b   12.09973367
_cell_length_c   12.09973367
_cell_angle_alpha   165.24388113
_cell_angle_beta   165.24388113
_cell_angle_gamma   20.92680351
_chemical_formula_structural   Sn2W4
_chemical_formula_sum   'Sn2 W4'
_cell_volume   114.90583257
loop_
 _symmetry_equiv_pos_site_id
 _symmetry_equiv_pos_as_xyz
  1  'x, y, z'
loop_
 _atom_type_symbol
  Sn
  W
loop_
 _atom_site_type_symbol
 _atom_site_label
 _atom_site_symmetry_multiplicity
 _atom_site_fract_x
 _atom_site_fract_y
 _atom_site_fract_z
 _atom_site_occupancy
  Sn  Sn0  1  0.00000000  0.00000000  0.00000000  1
  Sn  Sn1  1  0.25000000  0.75000000  0.50000000  1
  W  W0  1  0.58377808  0.58377808  0.00000000  1
  W  W1  1  0.66622192  0.16622192  0.50000000  1
  W  W2  1  0.41622192  0.41622192  0.00000000  1
  W  W3  1  0.83377808  0.33377808  0.50000000  1
