# generated using pymatgen
data_2380_K2Ni2
_symmetry_space_group_name_H-M   'Imma'
_cell_length_a   6.25258775
_cell_length_b   6.25258775
_cell_length_c   6.25258775
_cell_angle_alpha   142.36930261
_cell_angle_beta   136.01243033
_cell_angle_gamma   59.23933000
_chemical_formula_structural   K2Ni2
_chemical_formula_sum   'K2 Ni2'
_cell_volume   102.66825841
loop_
 _symmetry_equiv_pos_site_id
 _symmetry_equiv_pos_as_xyz
  1  'x, y, z'
loop_
 _atom_type_symbol
  K
  Ni
loop_
 _atom_site_type_symbol
 _atom_site_label
 _atom_site_symmetry_multiplicity
 _atom_site_fract_x
 _atom_site_fract_y
 _atom_site_fract_z
 _atom_site_occupancy
  K  K0  1  0.37470199  0.62470199  0.25000000  1
  K  K1  1  0.62529801  0.37529801  0.75000000  1
  Ni  Ni0  1  0.86791020  0.11791020  0.25000000  1
  Ni  Ni1  1  0.13208980  0.88208980  0.75000000  1
