# generated using pymatgen
data_2381_IrMn3
_symmetry_space_group_name_H-M   'P4/mmm'
_cell_length_a   2.59705125
_cell_length_b   2.59705125
_cell_length_c   6.99611756
_cell_angle_alpha   90.00000000
_cell_angle_beta   90.00000000
_cell_angle_gamma   90.00000000
_chemical_formula_structural   IrMn3
_chemical_formula_sum   'Ir1 Mn3'
_cell_volume   47.18654057
loop_
 _symmetry_equiv_pos_site_id
 _symmetry_equiv_pos_as_xyz
  1  'x, y, z'
loop_
 _atom_type_symbol
  Ir
  Mn
loop_
 _atom_site_type_symbol
 _atom_site_label
 _atom_site_symmetry_multiplicity
 _atom_site_fract_x
 _atom_site_fract_y
 _atom_site_fract_z
 _atom_site_occupancy
  Ir  Ir0  1  0.00000000  0.00000000  0.00000000  1
  Mn  Mn0  1  0.00000000  0.00000000  0.50000000  1
  Mn  Mn1  1  0.50000000  0.50000000  0.26722592  1
  Mn  Mn2  1  0.50000000  0.50000000  0.73277408  1
