# generated using pymatgen
data_2383_KSn
_symmetry_space_group_name_H-M   'P4/mmm'
_cell_length_a   3.38882210
_cell_length_b   3.38882210
_cell_length_c   5.77691695
_cell_angle_alpha   90.00000000
_cell_angle_beta   90.00000000
_cell_angle_gamma   89.89661787
_chemical_formula_structural   KSn
_chemical_formula_sum   'K1 Sn1'
_cell_volume   66.34267207
loop_
 _symmetry_equiv_pos_site_id
 _symmetry_equiv_pos_as_xyz
  1  'x, y, z'
loop_
 _atom_type_symbol
  K
  Sn
loop_
 _atom_site_type_symbol
 _atom_site_label
 _atom_site_symmetry_multiplicity
 _atom_site_fract_x
 _atom_site_fract_y
 _atom_site_fract_z
 _atom_site_occupancy
  K  K0  1  0.00000000  0.00000000  0.00000000  1
  Sn  Sn0  1  0.50000000  0.50000000  0.50000000  1
