# generated using pymatgen
data_2387_Ni2Sb
_symmetry_space_group_name_H-M   'I4/mmm'
_cell_length_a   4.51049093
_cell_length_b   4.51049093
_cell_length_c   4.51049093
_cell_angle_alpha   136.52180048
_cell_angle_beta   136.52180048
_cell_angle_gamma   63.17464691
_chemical_formula_structural   Ni2Sb
_chemical_formula_sum   'Ni2 Sb1'
_cell_volume   42.89312390
loop_
 _symmetry_equiv_pos_site_id
 _symmetry_equiv_pos_as_xyz
  1  'x, y, z'
loop_
 _atom_type_symbol
  Ni
  Sb
loop_
 _atom_site_type_symbol
 _atom_site_label
 _atom_site_symmetry_multiplicity
 _atom_site_fract_x
 _atom_site_fract_y
 _atom_site_fract_z
 _atom_site_occupancy
  Ni  Ni0  1  0.00270500  0.00270500  0.00000000  1
  Ni  Ni1  1  0.66396167  0.66396167  0.00000000  1
  Sb  Sb0  1  0.33333333  0.33333333  0.00000000  1
