# generated using pymatgen
data_2395_Nb2Pt2
_symmetry_space_group_name_H-M   'Pmma'
_cell_length_a   4.64868726
_cell_length_b   2.80822775
_cell_length_c   5.77560082
_cell_angle_alpha   60.87255767
_cell_angle_beta   90.00000000
_cell_angle_gamma   90.00000000
_chemical_formula_structural   Nb2Pt2
_chemical_formula_sum   'Nb2 Pt2'
_cell_volume   65.86310775
loop_
 _symmetry_equiv_pos_site_id
 _symmetry_equiv_pos_as_xyz
  1  'x, y, z'
loop_
 _atom_type_symbol
  Nb
  Pt
loop_
 _atom_site_type_symbol
 _atom_site_label
 _atom_site_symmetry_multiplicity
 _atom_site_fract_x
 _atom_site_fract_y
 _atom_site_fract_z
 _atom_site_occupancy
  Nb  Nb0  1  0.75000000  0.17853061  0.82120385  1
  Nb  Nb1  1  0.25000000  0.82146939  0.17879615  1
  Pt  Pt0  1  0.75000000  0.17426634  0.32516373  1
  Pt  Pt1  1  0.25000000  0.82573366  0.67483627  1
