# generated using pymatgen
data_2397_Ba5V
_symmetry_space_group_name_H-M   'P4/mmm'
_cell_length_a   4.21520553
_cell_length_b   4.21520553
_cell_length_c   17.29008340
_cell_angle_alpha   90.00000000
_cell_angle_beta   90.00000000
_cell_angle_gamma   90.00000000
_chemical_formula_structural   Ba5V
_chemical_formula_sum   'Ba5 V1'
_cell_volume   307.20946979
loop_
 _symmetry_equiv_pos_site_id
 _symmetry_equiv_pos_as_xyz
  1  'x, y, z'
loop_
 _atom_type_symbol
  Ba
  V
loop_
 _atom_site_type_symbol
 _atom_site_label
 _atom_site_symmetry_multiplicity
 _atom_site_fract_x
 _atom_site_fract_y
 _atom_site_fract_z
 _atom_site_occupancy
  Ba  Ba0  1  0.00000000  0.00000000  0.88909206  1
  Ba  Ba1  1  0.00000000  0.00000000  0.11090794  1
  Ba  Ba2  1  0.50000000  0.50000000  0.69515414  1
  Ba  Ba3  1  0.50000000  0.50000000  0.30484586  1
  Ba  Ba4  1  0.00000000  0.00000000  0.50000000  1
  V  V0  1  0.50000000  0.50000000  0.00000000  1
