# generated using pymatgen
data_2402_Mn2Sb4
_symmetry_space_group_name_H-M   'I4_1/amd'
_cell_length_a   3.17109620
_cell_length_b   12.94365812
_cell_length_c   3.16882219
_cell_angle_alpha   82.96888755
_cell_angle_beta   90.00000000
_cell_angle_gamma   97.03618365
_chemical_formula_structural   Mn2Sb4
_chemical_formula_sum   'Mn2 Sb4'
_cell_volume   128.10103248
loop_
 _symmetry_equiv_pos_site_id
 _symmetry_equiv_pos_as_xyz
  1  'x, y, z'
loop_
 _atom_type_symbol
  Mn
  Sb
loop_
 _atom_site_type_symbol
 _atom_site_label
 _atom_site_symmetry_multiplicity
 _atom_site_fract_x
 _atom_site_fract_y
 _atom_site_fract_z
 _atom_site_occupancy
  Mn  Mn0  1  0.12563648  0.75127296  0.62436352  1
  Mn  Mn1  1  0.87436352  0.24872704  0.37563648  1
  Sb  Sb0  1  0.68742077  0.87484154  0.06257923  1
  Sb  Sb1  1  0.31257923  0.12515846  0.93742077  1
  Sb  Sb2  1  0.56349310  0.62698620  0.18650690  1
  Sb  Sb3  1  0.43650690  0.37301380  0.81349310  1
