# generated using pymatgen
data_2406_Pb4V4
_symmetry_space_group_name_H-M   'P2_13'
_cell_length_a   5.39808846
_cell_length_b   5.39808846
_cell_length_c   5.39808846
_cell_angle_alpha   90.00000000
_cell_angle_beta   90.00000000
_cell_angle_gamma   90.00000000
_chemical_formula_structural   Pb4V4
_chemical_formula_sum   'Pb4 V4'
_cell_volume   157.29683767
loop_
 _symmetry_equiv_pos_site_id
 _symmetry_equiv_pos_as_xyz
  1  'x, y, z'
loop_
 _atom_type_symbol
  Pb
  V
loop_
 _atom_site_type_symbol
 _atom_site_label
 _atom_site_symmetry_multiplicity
 _atom_site_fract_x
 _atom_site_fract_y
 _atom_site_fract_z
 _atom_site_occupancy
  Pb  Pb0  1  0.59486370  0.59486370  0.40513630  1
  Pb  Pb1  1  0.90513630  0.40513630  0.90513630  1
  Pb  Pb2  1  0.40513630  0.09486370  0.09486370  1
  Pb  Pb3  1  0.09486370  0.90513630  0.59486370  1
  V  V0  1  0.88803400  0.88803400  0.11196600  1
  V  V1  1  0.61196600  0.11196600  0.61196600  1
  V  V2  1  0.11196600  0.38803400  0.38803400  1
  V  V3  1  0.38803400  0.61196600  0.88803400  1
