# generated using pymatgen
data_2414_Au4In2
_symmetry_space_group_name_H-M   'Pnnm'
_cell_length_a   4.05875310
_cell_length_b   4.50818781
_cell_length_c   8.06780181
_cell_angle_alpha   90.00000000
_cell_angle_beta   90.00000000
_cell_angle_gamma   90.00000000
_chemical_formula_structural   Au4In2
_chemical_formula_sum   'Au4 In2'
_cell_volume   147.62158183
loop_
 _symmetry_equiv_pos_site_id
 _symmetry_equiv_pos_as_xyz
  1  'x, y, z'
loop_
 _atom_type_symbol
  Au
  In
loop_
 _atom_site_type_symbol
 _atom_site_label
 _atom_site_symmetry_multiplicity
 _atom_site_fract_x
 _atom_site_fract_y
 _atom_site_fract_z
 _atom_site_occupancy
  Au  Au0  1  0.00000000  0.18004666  0.65376736  1
  Au  Au1  1  0.00000000  0.81995334  0.34623264  1
  Au  Au2  1  0.50000000  0.68004666  0.84623264  1
  Au  Au3  1  0.50000000  0.31995334  0.15376736  1
  In  In0  1  0.00000000  0.00000000  0.00000000  1
  In  In1  1  0.50000000  0.50000000  0.50000000  1
