# generated using pymatgen
data_2419_Ag5Al3
_symmetry_space_group_name_H-M   'Amm2'
_cell_length_a   2.99833498
_cell_length_b   5.75563574
_cell_length_c   8.39710723
_cell_angle_alpha   69.95762193
_cell_angle_beta   90.00000000
_cell_angle_gamma   90.00000000
_chemical_formula_structural   Ag5Al3
_chemical_formula_sum   'Ag5 Al3'
_cell_volume   136.13566546
loop_
 _symmetry_equiv_pos_site_id
 _symmetry_equiv_pos_as_xyz
  1  'x, y, z'
loop_
 _atom_type_symbol
  Ag
  Al
loop_
 _atom_site_type_symbol
 _atom_site_label
 _atom_site_symmetry_multiplicity
 _atom_site_fract_x
 _atom_site_fract_y
 _atom_site_fract_z
 _atom_site_occupancy
  Ag  Ag0  1  0.00000000  0.99493778  0.98387038  1
  Ag  Ag1  1  0.50000000  0.12277526  0.24539230  1
  Ag  Ag2  1  0.00000000  0.22880816  0.51612962  1
  Ag  Ag3  1  0.50000000  0.41162894  0.75000000  1
  Ag  Ag4  1  0.50000000  0.61816755  0.25460770  1
  Al  Al0  1  0.00000000  0.49229543  0.00732004  1
  Al  Al1  1  0.00000000  0.74961547  0.49267996  1
  Al  Al2  1  0.50000000  0.88177140  0.75000000  1
