# generated using pymatgen
data_2421_Ag4Al2
_symmetry_space_group_name_H-M   'Pnnm'
_cell_length_a   3.16303287
_cell_length_b   4.03945992
_cell_length_c   8.22880637
_cell_angle_alpha   90.00000000
_cell_angle_beta   90.00000000
_cell_angle_gamma   90.00000000
_chemical_formula_structural   Ag4Al2
_chemical_formula_sum   'Ag4 Al2'
_cell_volume   105.13900232
loop_
 _symmetry_equiv_pos_site_id
 _symmetry_equiv_pos_as_xyz
  1  'x, y, z'
loop_
 _atom_type_symbol
  Ag
  Al
loop_
 _atom_site_type_symbol
 _atom_site_label
 _atom_site_symmetry_multiplicity
 _atom_site_fract_x
 _atom_site_fract_y
 _atom_site_fract_z
 _atom_site_occupancy
  Ag  Ag0  1  0.00000000  0.12912657  0.65585309  1
  Ag  Ag1  1  0.00000000  0.87087343  0.34414691  1
  Ag  Ag2  1  0.50000000  0.62912657  0.84414691  1
  Ag  Ag3  1  0.50000000  0.37087343  0.15585309  1
  Al  Al0  1  0.00000000  0.00000000  0.00000000  1
  Al  Al1  1  0.50000000  0.50000000  0.50000000  1
