# generated using pymatgen
data_2423_Al3Sn5
_symmetry_space_group_name_H-M   'Cmmm'
_cell_length_a   6.42175845
_cell_length_b   6.42175845
_cell_length_c   4.76277989
_cell_angle_alpha   90.00000000
_cell_angle_beta   90.00000000
_cell_angle_gamma   101.18658492
_chemical_formula_structural   Al3Sn5
_chemical_formula_sum   'Al3 Sn5'
_cell_volume   192.68047962
loop_
 _symmetry_equiv_pos_site_id
 _symmetry_equiv_pos_as_xyz
  1  'x, y, z'
loop_
 _atom_type_symbol
  Al
  Sn
loop_
 _atom_site_type_symbol
 _atom_site_label
 _atom_site_symmetry_multiplicity
 _atom_site_fract_x
 _atom_site_fract_y
 _atom_site_fract_z
 _atom_site_occupancy
  Al  Al0  1  0.50000000  0.50000000  0.00000000  1
  Al  Al1  1  0.74994129  0.25005871  0.50000000  1
  Al  Al2  1  0.25005871  0.74994129  0.50000000  1
  Sn  Sn0  1  0.00000000  0.00000000  0.00000000  1
  Sn  Sn1  1  0.00000000  0.50000000  0.00000000  1
  Sn  Sn2  1  0.50000000  0.00000000  0.00000000  1
  Sn  Sn3  1  0.26994541  0.26994541  0.50000000  1
  Sn  Sn4  1  0.73005459  0.73005459  0.50000000  1
