# generated using pymatgen
data_2429_Ir12As17
_symmetry_space_group_name_H-M   'I-43m'
_cell_length_a   8.53353770
_cell_length_b   8.53353770
_cell_length_c   8.53353770
_cell_angle_alpha   109.47122063
_cell_angle_beta   109.47122063
_cell_angle_gamma   109.47122063
_chemical_formula_structural   Ir12As17
_chemical_formula_sum   'As17 Ir12'
_cell_volume   478.37166129
loop_
 _symmetry_equiv_pos_site_id
 _symmetry_equiv_pos_as_xyz
  1  'x, y, z'
loop_
 _atom_type_symbol
  As
  Ir
loop_
 _atom_site_type_symbol
 _atom_site_label
 _atom_site_symmetry_multiplicity
 _atom_site_fract_x
 _atom_site_fract_y
 _atom_site_fract_z
 _atom_site_occupancy
  As  As0  1  0.71144860  0.26920564  0.71144860  1
  As  As1  1  0.44224296  0.73079436  0.44224296  1
  As  As2  1  0.28855140  0.00000000  0.55775704  1
  As  As3  1  0.55775704  0.00000000  0.28855140  1
  As  As4  1  0.28855140  0.55775704  0.00000000  1
  As  As5  1  0.55775704  0.28855140  0.00000000  1
  As  As6  1  0.44224296  0.44224296  0.73079436  1
  As  As7  1  0.71144860  0.71144860  0.26920564  1
  As  As8  1  1.00000000  0.55775704  0.28855140  1
  As  As9  1  0.00000000  0.28855140  0.55775704  1
  As  As10  1  0.26920564  0.71144860  0.71144860  1
  As  As11  1  0.73079436  0.44224296  0.44224296  1
  As  As12  1  1.00000000  0.27291049  0.00000000  1
  As  As13  1  0.72708951  0.72708951  0.72708951  1
  As  As14  1  1.00000000  0.00000000  0.27291049  1
  As  As15  1  0.27291049  0.00000000  0.00000000  1
  As  As16  1  0.00000000  0.00000000  0.00000000  1
  Ir  Ir0  1  0.20602237  0.77844644  0.20602237  1
  Ir  Ir1  1  0.42757594  0.22155356  0.42757594  1
  Ir  Ir2  1  0.79397763  0.00000000  0.57242406  1
  Ir  Ir3  1  0.57242406  0.00000000  0.79397763  1
  Ir  Ir4  1  0.79397763  0.57242406  0.00000000  1
  Ir  Ir5  1  0.57242406  0.79397763  0.00000000  1
  Ir  Ir6  1  0.42757594  0.42757594  0.22155356  1
  Ir  Ir7  1  0.20602237  0.20602237  0.77844644  1
  Ir  Ir8  1  1.00000000  0.57242406  0.79397763  1
  Ir  Ir9  1  0.00000000  0.79397763  0.57242406  1
  Ir  Ir10  1  0.77844644  0.20602237  0.20602237  1
  Ir  Ir11  1  0.22155356  0.42757594  0.42757594  1
