# generated using pymatgen
data_2430_Ir17As12
_symmetry_space_group_name_H-M   'I-43m'
_cell_length_a   8.49362633
_cell_length_b   8.49362633
_cell_length_c   8.49362633
_cell_angle_alpha   109.47122063
_cell_angle_beta   109.47122063
_cell_angle_gamma   109.47122063
_chemical_formula_structural   Ir17As12
_chemical_formula_sum   'As12 Ir17'
_cell_volume   471.69096945
loop_
 _symmetry_equiv_pos_site_id
 _symmetry_equiv_pos_as_xyz
  1  'x, y, z'
loop_
 _atom_type_symbol
  As
  Ir
loop_
 _atom_site_type_symbol
 _atom_site_label
 _atom_site_symmetry_multiplicity
 _atom_site_fract_x
 _atom_site_fract_y
 _atom_site_fract_z
 _atom_site_occupancy
  As  As0  1  0.21304555  0.00000000  0.42274126  1
  As  As1  1  0.42274126  0.00000000  0.21304555  1
  As  As2  1  0.57725874  0.79030429  0.57725874  1
  As  As3  1  0.78695445  0.20969571  0.78695445  1
  As  As4  1  1.00000000  0.21304555  0.42274126  1
  As  As5  1  0.00000000  0.42274126  0.21304555  1
  As  As6  1  0.20969571  0.78695445  0.78695445  1
  As  As7  1  0.79030429  0.57725874  0.57725874  1
  As  As8  1  0.78695445  0.78695445  0.20969571  1
  As  As9  1  0.57725874  0.57725874  0.79030429  1
  As  As10  1  0.21304555  0.42274126  0.00000000  1
  As  As11  1  0.42274126  0.21304555  0.00000000  1
  Ir  Ir0  1  0.71069087  0.00000000  0.43382692  1
  Ir  Ir1  1  0.43382692  0.00000000  0.71069087  1
  Ir  Ir2  1  0.56617308  0.27686395  0.56617308  1
  Ir  Ir3  1  0.28930913  0.72313605  0.28930913  1
  Ir  Ir4  1  0.00000000  0.71069087  0.43382692  1
  Ir  Ir5  1  0.00000000  0.43382692  0.71069087  1
  Ir  Ir6  1  0.72313605  0.28930913  0.28930913  1
  Ir  Ir7  1  0.27686395  0.56617308  0.56617308  1
  Ir  Ir8  1  0.28930913  0.28930913  0.72313605  1
  Ir  Ir9  1  0.56617308  0.56617308  0.27686395  1
  Ir  Ir10  1  0.71069087  0.43382692  0.00000000  1
  Ir  Ir11  1  0.43382692  0.71069087  0.00000000  1
  Ir  Ir12  1  0.00000000  0.00000000  0.71104754  1
  Ir  Ir13  1  0.71104754  0.00000000  0.00000000  1
  Ir  Ir14  1  0.28895246  0.28895246  0.28895246  1
  Ir  Ir15  1  0.00000000  0.71104754  0.00000000  1
  Ir  Ir16  1  0.00000000  0.00000000  0.00000000  1
