# generated using pymatgen
data_2434_PtAs3
_symmetry_space_group_name_H-M   'P4/mmm'
_cell_length_a   3.16742990
_cell_length_b   3.16742990
_cell_length_c   7.31767488
_cell_angle_alpha   90.00000000
_cell_angle_beta   90.00000000
_cell_angle_gamma   90.00000000
_chemical_formula_structural   PtAs3
_chemical_formula_sum   'As3 Pt1'
_cell_volume   73.41539407
loop_
 _symmetry_equiv_pos_site_id
 _symmetry_equiv_pos_as_xyz
  1  'x, y, z'
loop_
 _atom_type_symbol
  As
  Pt
loop_
 _atom_site_type_symbol
 _atom_site_label
 _atom_site_symmetry_multiplicity
 _atom_site_fract_x
 _atom_site_fract_y
 _atom_site_fract_z
 _atom_site_occupancy
  As  As0  1  0.00000000  0.00000000  0.96868854  1
  As  As1  1  0.50000000  0.50000000  0.25000000  1
  As  As2  1  0.00000000  0.00000000  0.53131146  1
  Pt  Pt0  1  0.50000000  0.50000000  0.75000000  1
