# generated using pymatgen
data_2439_Mo2W
_symmetry_space_group_name_H-M   'I4/mmm'
_cell_length_a   3.16980337
_cell_length_b   5.26525578
_cell_length_c   6.34158620
_cell_angle_alpha   72.43976166
_cell_angle_beta   90.00000000
_cell_angle_gamma   107.51835657
_chemical_formula_structural   Mo2W
_chemical_formula_sum   'Mo4 W2'
_cell_volume   95.74652561
loop_
 _symmetry_equiv_pos_site_id
 _symmetry_equiv_pos_as_xyz
  1  'x, y, z'
loop_
 _atom_type_symbol
  Mo
  W
loop_
 _atom_site_type_symbol
 _atom_site_label
 _atom_site_symmetry_multiplicity
 _atom_site_fract_x
 _atom_site_fract_y
 _atom_site_fract_z
 _atom_site_occupancy
  Mo  Mo0  1  0.02786757  0.05573514  0.94458071  1
  Mo  Mo1  1  0.36102132  0.72204264  0.77764152  1
  Mo  Mo2  1  0.02793254  0.05586509  0.44445433  1
  Mo  Mo3  1  0.36095635  0.72191269  0.27776789  1
  W  W0  1  0.69442018  0.38884036  0.61115760  1
  W  W1  1  0.69446871  0.38893742  0.11106462  1
