# generated using pymatgen
data_2441_AgNa4
_symmetry_space_group_name_H-M   'I4/m'
_cell_length_a   5.88527008
_cell_length_b   5.88527008
_cell_length_c   5.88527008
_cell_angle_alpha   99.69266168
_cell_angle_beta   99.69266168
_cell_angle_gamma   131.55002712
_chemical_formula_structural   AgNa4
_chemical_formula_sum   'Ag1 Na4'
_cell_volume   139.11899148
loop_
 _symmetry_equiv_pos_site_id
 _symmetry_equiv_pos_as_xyz
  1  'x, y, z'
loop_
 _atom_type_symbol
  Ag
  Na
loop_
 _atom_site_type_symbol
 _atom_site_label
 _atom_site_symmetry_multiplicity
 _atom_site_fract_x
 _atom_site_fract_y
 _atom_site_fract_z
 _atom_site_occupancy
  Ag  Ag0  1  0.00000000  0.00000000  0.00000000  1
  Na  Na0  1  0.78816489  0.39403102  0.18219591  1
  Na  Na1  1  0.39403102  0.21183511  0.60586614  1
  Na  Na2  1  0.21183511  0.60596898  0.81780409  1
  Na  Na3  1  0.60596898  0.78816489  0.39413386  1
