# generated using pymatgen
data_2447_Al3Cs
_symmetry_space_group_name_H-M   'Fm -3 m'
_cell_length_a   5.27759101
_cell_length_b   5.27759101
_cell_length_c   5.27759101
_cell_angle_alpha   119.93315986
_cell_angle_beta   119.93315986
_cell_angle_gamma   90.11580955
_chemical_formula_structural   Al3Cs
_chemical_formula_sum   'Al3 Cs1'
_cell_volume   104.04705113
loop_
 _symmetry_equiv_pos_site_id
 _symmetry_equiv_pos_as_xyz
  1  'x, y, z'
loop_
 _atom_type_symbol
  Al
  Cs
loop_
 _atom_site_type_symbol
 _atom_site_label
 _atom_site_symmetry_multiplicity
 _atom_site_fract_x
 _atom_site_fract_y
 _atom_site_fract_z
 _atom_site_occupancy
  Al  Al0  1  0.50000040  0.50000040  0.00000000  1
  Al  Al1  1  0.74999934  0.24999953  0.49999981  1
  Al  Al2  1  0.24999953  0.74999934  0.49999981  1
  Cs  Cs0  1  0.00000000  0.00000000  0.00000000  1
