# generated using pymatgen
data_2453_Ca2Rh
_symmetry_space_group_name_H-M   'I4/mmm'
_cell_length_a   7.06148859
_cell_length_b   7.06148859
_cell_length_c   7.06148859
_cell_angle_alpha   151.38146873
_cell_angle_beta   151.38146873
_cell_angle_gamma   40.91725890
_chemical_formula_structural   Ca2Rh
_chemical_formula_sum   'Ca2 Rh1'
_cell_volume   80.61109694
loop_
 _symmetry_equiv_pos_site_id
 _symmetry_equiv_pos_as_xyz
  1  'x, y, z'
loop_
 _atom_type_symbol
  Ca
  Rh
loop_
 _atom_site_type_symbol
 _atom_site_label
 _atom_site_symmetry_multiplicity
 _atom_site_fract_x
 _atom_site_fract_y
 _atom_site_fract_z
 _atom_site_occupancy
  Ca  Ca0  1  0.62426972  0.62426972  0.00000000  1
  Ca  Ca1  1  0.37573028  0.37573028  0.00000000  1
  Rh  Rh0  1  0.00000000  0.00000000  0.00000000  1
