# generated using pymatgen
data_2455_Nb2P
_symmetry_space_group_name_H-M   'I4/mmm'
_cell_length_a   4.90152755
_cell_length_b   4.90152755
_cell_length_c   4.90152755
_cell_angle_alpha   140.04235627
_cell_angle_beta   140.04235627
_cell_angle_gamma   57.78899231
_chemical_formula_structural   Nb2P
_chemical_formula_sum   'Nb2 P1'
_cell_volume   48.14339215
loop_
 _symmetry_equiv_pos_site_id
 _symmetry_equiv_pos_as_xyz
  1  'x, y, z'
loop_
 _atom_type_symbol
  Nb
  P
loop_
 _atom_site_type_symbol
 _atom_site_label
 _atom_site_symmetry_multiplicity
 _atom_site_fract_x
 _atom_site_fract_y
 _atom_site_fract_z
 _atom_site_occupancy
  Nb  Nb0  1  0.65890976  0.65890976  0.00000000  1
  Nb  Nb1  1  0.34109024  0.34109024  0.00000000  1
  P  P0  1  0.00000000  0.00000000  0.00000000  1
