# generated using pymatgen
data_2457_GaPb
_symmetry_space_group_name_H-M   'P-6m2'
_cell_length_a   3.43727500
_cell_length_b   3.43720989
_cell_length_c   5.16071600
_cell_angle_alpha   90.00000000
_cell_angle_beta   90.00000000
_cell_angle_gamma   120.00063623
_chemical_formula_structural   GaPb
_chemical_formula_sum   'Ga1 Pb1'
_cell_volume   52.80294431
loop_
 _symmetry_equiv_pos_site_id
 _symmetry_equiv_pos_as_xyz
  1  'x, y, z'
loop_
 _atom_type_symbol
  Ga
  Pb
loop_
 _atom_site_type_symbol
 _atom_site_label
 _atom_site_symmetry_multiplicity
 _atom_site_fract_x
 _atom_site_fract_y
 _atom_site_fract_z
 _atom_site_occupancy
  Ga  Ga0  1  0.66666569  0.33332981  0.75000051  1
  Pb  Pb0  1  0.33333494  0.66666969  0.25000017  1
