# generated using pymatgen
data_2459_PbSm
_symmetry_space_group_name_H-M   'R -3 m'
_cell_length_a   5.56722872
_cell_length_b   5.56722872
_cell_length_c   5.56722867
_cell_angle_alpha   39.01805347
_cell_angle_beta   39.01805347
_cell_angle_gamma   39.01805569
_chemical_formula_structural   PbSm
_chemical_formula_sum   'Pb1 Sm1'
_cell_volume   61.50714776
loop_
 _symmetry_equiv_pos_site_id
 _symmetry_equiv_pos_as_xyz
  1  'x, y, z'
loop_
 _atom_type_symbol
  Pb
  Sm
loop_
 _atom_site_type_symbol
 _atom_site_label
 _atom_site_symmetry_multiplicity
 _atom_site_fract_x
 _atom_site_fract_y
 _atom_site_fract_z
 _atom_site_occupancy
  Pb  Pb0  1  0.00000000  0.00000000  0.00000000  1
  Sm  Sm0  1  0.49999963  0.49999963  0.49999986  1
