# generated using pymatgen
data_2466_Pb24V5
_symmetry_space_group_name_H-M   'I-43m'
_cell_length_a   10.76489646
_cell_length_b   10.76489646
_cell_length_c   10.76489646
_cell_angle_alpha   109.47122063
_cell_angle_beta   109.47122063
_cell_angle_gamma   109.47122063
_chemical_formula_structural   Pb24V5
_chemical_formula_sum   'Pb24 V5'
_cell_volume   960.30166195
loop_
 _symmetry_equiv_pos_site_id
 _symmetry_equiv_pos_as_xyz
  1  'x, y, z'
loop_
 _atom_type_symbol
  Pb
  V
loop_
 _atom_site_type_symbol
 _atom_site_label
 _atom_site_symmetry_multiplicity
 _atom_site_fract_x
 _atom_site_fract_y
 _atom_site_fract_z
 _atom_site_occupancy
  Pb  Pb0  1  0.18172457  0.35648587  0.00000000  1
  Pb  Pb1  1  0.35648587  0.18172457  0.00000000  1
  Pb  Pb2  1  0.81827543  0.81827543  0.17476129  1
  Pb  Pb3  1  0.64351413  0.64351413  0.82523871  1
  Pb  Pb4  1  0.81827543  0.17476129  0.81827543  1
  Pb  Pb5  1  0.64351413  0.82523871  0.64351413  1
  Pb  Pb6  1  0.35648587  0.00000000  0.18172457  1
  Pb  Pb7  1  0.18172457  0.00000000  0.35648587  1
  Pb  Pb8  1  1.00000000  0.35648587  0.18172457  1
  Pb  Pb9  1  1.00000000  0.18172457  0.35648587  1
  Pb  Pb10  1  0.82523871  0.64351413  0.64351413  1
  Pb  Pb11  1  0.17476129  0.81827543  0.81827543  1
  Pb  Pb12  1  0.80563965  0.49197546  0.00000000  1
  Pb  Pb13  1  0.49197546  0.80563965  0.00000000  1
  Pb  Pb14  1  0.19436035  0.19436035  0.68633580  1
  Pb  Pb15  1  0.50802454  0.50802454  0.31366420  1
  Pb  Pb16  1  0.19436035  0.68633580  0.19436035  1
  Pb  Pb17  1  0.50802454  0.31366420  0.50802454  1
  Pb  Pb18  1  0.49197546  0.00000000  0.80563965  1
  Pb  Pb19  1  0.80563965  0.00000000  0.49197546  1
  Pb  Pb20  1  1.00000000  0.49197546  0.80563965  1
  Pb  Pb21  1  1.00000000  0.80563965  0.49197546  1
  Pb  Pb22  1  0.31366420  0.50802454  0.50802454  1
  Pb  Pb23  1  0.68633580  0.19436035  0.19436035  1
  V  V0  1  0.00000000  0.77330644  0.00000000  1
  V  V1  1  0.77330644  0.00000000  0.00000000  1
  V  V2  1  0.00000000  0.00000000  0.77330644  1
  V  V3  1  0.22669356  0.22669356  0.22669356  1
  V  V4  1  0.00000000  0.00000000  0.00000000  1
