# generated using pymatgen
data_2469_AlCs3
_symmetry_space_group_name_H-M   'Fm -3 m'
_cell_length_a   6.97662239
_cell_length_b   6.97662239
_cell_length_c   6.97662239
_cell_angle_alpha   60.00000000
_cell_angle_beta   60.00000000
_cell_angle_gamma   60.00000000
_chemical_formula_structural   AlCs3
_chemical_formula_sum   'Al1 Cs3'
_cell_volume   240.11575337
loop_
 _symmetry_equiv_pos_site_id
 _symmetry_equiv_pos_as_xyz
  1  'x, y, z'
loop_
 _atom_type_symbol
  Al
  Cs
loop_
 _atom_site_type_symbol
 _atom_site_label
 _atom_site_symmetry_multiplicity
 _atom_site_fract_x
 _atom_site_fract_y
 _atom_site_fract_z
 _atom_site_occupancy
  Al  Al0  1  0.74999944  0.74999944  0.74999944  1
  Cs  Cs0  1  0.00000000  0.00000000  0.00000000  1
  Cs  Cs1  1  0.25000015  0.25000015  0.25000015  1
  Cs  Cs2  1  0.50000030  0.50000030  0.50000030  1
