# generated using pymatgen
data_2478_As4Br4
_symmetry_space_group_name_H-M   'P2_13'
_cell_length_a   5.98796926
_cell_length_b   5.98796926
_cell_length_c   5.98796926
_cell_angle_alpha   90.00000000
_cell_angle_beta   90.00000000
_cell_angle_gamma   90.00000000
_chemical_formula_structural   As4Br4
_chemical_formula_sum   'As4 Br4'
_cell_volume   214.70328364
loop_
 _symmetry_equiv_pos_site_id
 _symmetry_equiv_pos_as_xyz
  1  'x, y, z'
loop_
 _atom_type_symbol
  As
  Br
loop_
 _atom_site_type_symbol
 _atom_site_label
 _atom_site_symmetry_multiplicity
 _atom_site_fract_x
 _atom_site_fract_y
 _atom_site_fract_z
 _atom_site_occupancy
  As  As0  1  0.65254162  0.65254162  0.34745838  1
  As  As1  1  0.84745838  0.34745838  0.84745838  1
  As  As2  1  0.34745838  0.15254162  0.15254162  1
  As  As3  1  0.15254162  0.84745838  0.65254162  1
  Br  Br0  1  0.88403448  0.88403448  0.11596552  1
  Br  Br1  1  0.61596552  0.11596552  0.61596552  1
  Br  Br2  1  0.11596552  0.38403448  0.38403448  1
  Br  Br3  1  0.38403448  0.61596552  0.88403448  1
