# generated using pymatgen
data_2483_Fe18As6
_symmetry_space_group_name_H-M   'Pmmn'
_cell_length_a   4.48801424
_cell_length_b   5.10976824
_cell_length_c   12.71463910
_cell_angle_alpha   90.00000000
_cell_angle_beta   90.00000000
_cell_angle_gamma   89.99719852
_chemical_formula_structural   Fe18As6
_chemical_formula_sum   'As6 Fe18'
_cell_volume   291.58116443
loop_
 _symmetry_equiv_pos_site_id
 _symmetry_equiv_pos_as_xyz
  1  'x, y, z'
loop_
 _atom_type_symbol
  As
  Fe
loop_
 _atom_site_type_symbol
 _atom_site_label
 _atom_site_symmetry_multiplicity
 _atom_site_fract_x
 _atom_site_fract_y
 _atom_site_fract_z
 _atom_site_occupancy
  As  As0  1  0.99585812  0.24996818  0.75000000  1
  As  As1  1  0.66202367  0.25001607  0.41600778  1
  As  As2  1  0.66202367  0.25001607  0.08399222  1
  As  As3  1  0.00414188  0.75003182  0.25000000  1
  As  As4  1  0.33797633  0.74998393  0.91600778  1
  As  As5  1  0.33797633  0.74998393  0.58399222  1
  Fe  Fe0  1  0.16519065  0.99980895  0.41705809  1
  Fe  Fe1  1  0.16519065  0.99980895  0.08294191  1
  Fe  Fe2  1  0.50739999  0.00110828  0.75000000  1
  Fe  Fe3  1  0.49260001  0.99889172  0.25000000  1
  Fe  Fe4  1  0.83480935  0.00019105  0.91705809  1
  Fe  Fe5  1  0.83480935  0.00019105  0.58294191  1
  Fe  Fe6  1  0.99303279  0.25003099  0.25000000  1
  Fe  Fe7  1  0.33338425  0.24998565  0.91621603  1
  Fe  Fe8  1  0.33338425  0.24998565  0.58378397  1
  Fe  Fe9  1  0.16518862  0.50035581  0.41705938  1
  Fe  Fe10  1  0.16518862  0.50035581  0.08294062  1
  Fe  Fe11  1  0.50740402  0.49888744  0.75000000  1
  Fe  Fe12  1  0.49259598  0.50111256  0.25000000  1
  Fe  Fe13  1  0.83481138  0.49964419  0.91705938  1
  Fe  Fe14  1  0.83481138  0.49964419  0.58294062  1
  Fe  Fe15  1  0.00696721  0.74996901  0.75000000  1
  Fe  Fe16  1  0.66661575  0.75001435  0.41621603  1
  Fe  Fe17  1  0.66661575  0.75001435  0.08378397  1
