# generated using pymatgen
data_2489_RbU
_symmetry_space_group_name_H-M   'Fm -3 m'
_cell_length_a   5.13341342
_cell_length_b   5.13341342
_cell_length_c   5.13341342
_cell_angle_alpha   60.00000000
_cell_angle_beta   60.00000000
_cell_angle_gamma   60.00000000
_chemical_formula_structural   RbU
_chemical_formula_sum   'Rb1 U1'
_cell_volume   95.65413023
loop_
 _symmetry_equiv_pos_site_id
 _symmetry_equiv_pos_as_xyz
  1  'x, y, z'
loop_
 _atom_type_symbol
  Rb
  U
loop_
 _atom_site_type_symbol
 _atom_site_label
 _atom_site_symmetry_multiplicity
 _atom_site_fract_x
 _atom_site_fract_y
 _atom_site_fract_z
 _atom_site_occupancy
  Rb  Rb0  1  0.00000000  0.00000000  0.00000000  1
  U  U0  1  0.49999996  0.49999996  0.49999996  1
