# generated using pymatgen
data_2495_Au2In4
_symmetry_space_group_name_H-M   'Pnnm'
_cell_length_a   3.49654584
_cell_length_b   6.81498461
_cell_length_c   6.43122012
_cell_angle_alpha   90.00000000
_cell_angle_beta   90.00000000
_cell_angle_gamma   90.00000000
_chemical_formula_structural   Au2In4
_chemical_formula_sum   'Au2 In4'
_cell_volume   153.24894027
loop_
 _symmetry_equiv_pos_site_id
 _symmetry_equiv_pos_as_xyz
  1  'x, y, z'
loop_
 _atom_type_symbol
  Au
  In
loop_
 _atom_site_type_symbol
 _atom_site_label
 _atom_site_symmetry_multiplicity
 _atom_site_fract_x
 _atom_site_fract_y
 _atom_site_fract_z
 _atom_site_occupancy
  Au  Au0  1  0.00000000  0.00000000  0.00000000  1
  Au  Au1  1  0.50000000  0.50000000  0.50000000  1
  In  In0  1  0.00000000  0.19539532  0.61848204  1
  In  In1  1  0.00000000  0.80460468  0.38151796  1
  In  In2  1  0.50000000  0.69539532  0.88151796  1
  In  In3  1  0.50000000  0.30460468  0.11848204  1
