# generated using pymatgen
data_2496_Al2Sn4
_symmetry_space_group_name_H-M   'Pnnm'
_cell_length_a   4.38083744
_cell_length_b   5.22233163
_cell_length_c   7.18852879
_cell_angle_alpha   90.00000000
_cell_angle_beta   90.00000000
_cell_angle_gamma   90.00000000
_chemical_formula_structural   Al2Sn4
_chemical_formula_sum   'Al2 Sn4'
_cell_volume   164.46049821
loop_
 _symmetry_equiv_pos_site_id
 _symmetry_equiv_pos_as_xyz
  1  'x, y, z'
loop_
 _atom_type_symbol
  Al
  Sn
loop_
 _atom_site_type_symbol
 _atom_site_label
 _atom_site_symmetry_multiplicity
 _atom_site_fract_x
 _atom_site_fract_y
 _atom_site_fract_z
 _atom_site_occupancy
  Al  Al0  1  0.00000000  0.00000000  0.00000000  1
  Al  Al1  1  0.50000000  0.50000000  0.50000000  1
  Sn  Sn0  1  0.00000000  0.21445728  0.63985199  1
  Sn  Sn1  1  0.00000000  0.78554272  0.36014801  1
  Sn  Sn2  1  0.50000000  0.71445728  0.86014801  1
  Sn  Sn3  1  0.50000000  0.28554272  0.13985199  1
