# generated using pymatgen
data_2498_Au4Nb2
_symmetry_space_group_name_H-M   'Cmcm'
_cell_length_a   6.56999639
_cell_length_b   6.56999639
_cell_length_c   4.07637180
_cell_angle_alpha   90.00000000
_cell_angle_beta   90.00000000
_cell_angle_gamma   142.56189273
_chemical_formula_structural   Au4Nb2
_chemical_formula_sum   'Au4 Nb2'
_cell_volume   106.96436075
loop_
 _symmetry_equiv_pos_site_id
 _symmetry_equiv_pos_as_xyz
  1  'x, y, z'
loop_
 _atom_type_symbol
  Au
  Nb
loop_
 _atom_site_type_symbol
 _atom_site_label
 _atom_site_symmetry_multiplicity
 _atom_site_fract_x
 _atom_site_fract_y
 _atom_site_fract_z
 _atom_site_occupancy
  Au  Au0  1  0.57998101  0.42001899  0.25000000  1
  Au  Au1  1  0.42001899  0.57998101  0.75000000  1
  Au  Au2  1  0.25176456  0.74823544  0.25000000  1
  Au  Au3  1  0.74823544  0.25176456  0.75000000  1
  Nb  Nb0  1  0.91815080  0.08184920  0.25000000  1
  Nb  Nb1  1  0.08184920  0.91815080  0.75000000  1
