# generated using pymatgen
data_249_Ni8Ta16
_symmetry_space_group_name_H-M   'Fd -3 m'
_cell_length_a   8.14367264
_cell_length_b   8.14367264
_cell_length_c   8.14367264
_cell_angle_alpha   60.00000000
_cell_angle_beta   60.00000000
_cell_angle_gamma   60.00000000
_chemical_formula_structural   Ni8Ta16
_chemical_formula_sum   'Ni8 Ta16'
_cell_volume   381.89671735
loop_
 _symmetry_equiv_pos_site_id
 _symmetry_equiv_pos_as_xyz
  1  'x, y, z'
loop_
 _atom_type_symbol
  Ni
  Ta
loop_
 _atom_site_type_symbol
 _atom_site_label
 _atom_site_symmetry_multiplicity
 _atom_site_fract_x
 _atom_site_fract_y
 _atom_site_fract_z
 _atom_site_occupancy
  Ni  Ni0  1  0.70743259  0.87770223  0.70743259  1
  Ni  Ni1  1  0.37770223  0.20743259  0.70743259  1
  Ni  Ni2  1  0.70743259  0.20743259  0.37770223  1
  Ni  Ni3  1  0.70743259  0.20743259  0.70743259  1
  Ni  Ni4  1  0.29256741  0.12229777  0.29256741  1
  Ni  Ni5  1  0.62229777  0.79256741  0.29256741  1
  Ni  Ni6  1  0.29256741  0.79256741  0.62229777  1
  Ni  Ni7  1  0.29256741  0.79256741  0.29256741  1
  Ta  Ta0  1  0.50000000  0.00000000  0.50000000  1
  Ta  Ta1  1  0.50000000  0.00000000  0.00000000  1
  Ta  Ta2  1  0.00000000  0.00000000  0.50000000  1
  Ta  Ta3  1  0.50000000  0.50000000  0.50000000  1
  Ta  Ta4  1  0.31211422  0.81211422  0.93788578  1
  Ta  Ta5  1  0.93788578  0.81211422  0.31211422  1
  Ta  Ta6  1  0.93788578  0.81211422  0.93788578  1
  Ta  Ta7  1  0.31211422  0.43788578  0.31211422  1
  Ta  Ta8  1  0.31211422  0.43788578  0.93788578  1
  Ta  Ta9  1  0.93788578  0.43788578  0.31211422  1
  Ta  Ta10  1  0.68788578  0.18788578  0.06211422  1
  Ta  Ta11  1  0.06211422  0.18788578  0.68788578  1
  Ta  Ta12  1  0.06211422  0.18788578  0.06211422  1
  Ta  Ta13  1  0.68788578  0.56211422  0.68788578  1
  Ta  Ta14  1  0.68788578  0.56211422  0.06211422  1
  Ta  Ta15  1  0.06211422  0.56211422  0.68788578  1
