# generated using pymatgen
data_24_Cu2Ga2
_symmetry_space_group_name_H-M   'Pmma'
_cell_length_a   2.69995292
_cell_length_b   4.48447946
_cell_length_c   4.58345827
_cell_angle_alpha   90.00000000
_cell_angle_beta   90.00000000
_cell_angle_gamma   90.00000000
_chemical_formula_structural   Cu2Ga2
_chemical_formula_sum   'Cu2 Ga2'
_cell_volume   55.49597836
loop_
 _symmetry_equiv_pos_site_id
 _symmetry_equiv_pos_as_xyz
  1  'x, y, z'
loop_
 _atom_type_symbol
  Cu
  Ga
loop_
 _atom_site_type_symbol
 _atom_site_label
 _atom_site_symmetry_multiplicity
 _atom_site_fract_x
 _atom_site_fract_y
 _atom_site_fract_z
 _atom_site_occupancy
  Cu  Cu0  1  0.00000000  0.00000000  0.00381152  1
  Cu  Cu1  1  0.00000000  0.50000000  0.32952181  1
  Ga  Ga0  1  0.50000000  0.00000000  0.49076553  1
  Ga  Ga1  1  0.50000000  0.50000000  0.84256780  1
