# generated using pymatgen
data_2504_Cr2As2
_symmetry_space_group_name_H-M   'P4/nmm'
_cell_length_a   2.93940641
_cell_length_b   2.93940641
_cell_length_c   7.23678996
_cell_angle_alpha   90.00000000
_cell_angle_beta   90.00000000
_cell_angle_gamma   90.00000000
_chemical_formula_structural   Cr2As2
_chemical_formula_sum   'As2 Cr2'
_cell_volume   62.52666161
loop_
 _symmetry_equiv_pos_site_id
 _symmetry_equiv_pos_as_xyz
  1  'x, y, z'
loop_
 _atom_type_symbol
  As
  Cr
loop_
 _atom_site_type_symbol
 _atom_site_label
 _atom_site_symmetry_multiplicity
 _atom_site_fract_x
 _atom_site_fract_y
 _atom_site_fract_z
 _atom_site_occupancy
  As  As0  1  0.25000000  0.25000000  0.20162543  1
  As  As1  1  0.75000000  0.75000000  0.79837457  1
  Cr  Cr0  1  0.25000000  0.25000000  0.58507305  1
  Cr  Cr1  1  0.75000000  0.75000000  0.41492695  1
