# generated using pymatgen
data_2507_AuP2
_symmetry_space_group_name_H-M   'I4/mmm'
_cell_length_a   5.89967953
_cell_length_b   5.89967953
_cell_length_c   5.89967953
_cell_angle_alpha   148.61833747
_cell_angle_beta   148.61833747
_cell_angle_gamma   44.97339839
_chemical_formula_structural   AuP2
_chemical_formula_sum   'Au1 P2'
_cell_volume   55.50916821
loop_
 _symmetry_equiv_pos_site_id
 _symmetry_equiv_pos_as_xyz
  1  'x, y, z'
loop_
 _atom_type_symbol
  Au
  P
loop_
 _atom_site_type_symbol
 _atom_site_label
 _atom_site_symmetry_multiplicity
 _atom_site_fract_x
 _atom_site_fract_y
 _atom_site_fract_z
 _atom_site_occupancy
  Au  Au0  1  0.00000000  0.00000000  0.00000000  1
  P  P0  1  0.78280730  0.78280730  0.00000000  1
  P  P1  1  0.21719270  0.21719270  0.00000000  1
