# generated using pymatgen
data_2508_Fe2Pb2
_symmetry_space_group_name_H-M   'Pmmn'
_cell_length_a   3.20807414
_cell_length_b   5.28091629
_cell_length_c   4.70129442
_cell_angle_alpha   90.00000000
_cell_angle_beta   90.00000000
_cell_angle_gamma   90.00000000
_chemical_formula_structural   Fe2Pb2
_chemical_formula_sum   'Fe2 Pb2'
_cell_volume   79.64731314
loop_
 _symmetry_equiv_pos_site_id
 _symmetry_equiv_pos_as_xyz
  1  'x, y, z'
loop_
 _atom_type_symbol
  Fe
  Pb
loop_
 _atom_site_type_symbol
 _atom_site_label
 _atom_site_symmetry_multiplicity
 _atom_site_fract_x
 _atom_site_fract_y
 _atom_site_fract_z
 _atom_site_occupancy
  Fe  Fe0  1  0.00000000  0.00000000  0.03104453  1
  Fe  Fe1  1  0.50000000  0.50000000  0.80228880  1
  Pb  Pb0  1  0.50000000  0.00000000  0.54862009  1
  Pb  Pb1  1  0.00000000  0.50000000  0.28471324  1
