# generated using pymatgen
data_2509_AuIr3
_symmetry_space_group_name_H-M   'Immm'
_cell_length_a   5.59323020
_cell_length_b   5.59323020
_cell_length_c   5.59323020
_cell_angle_alpha   151.74567269
_cell_angle_beta   130.06834360
_cell_angle_gamma   58.36164895
_chemical_formula_structural   AuIr3
_chemical_formula_sum   'Au1 Ir3'
_cell_volume   62.95352411
loop_
 _symmetry_equiv_pos_site_id
 _symmetry_equiv_pos_as_xyz
  1  'x, y, z'
loop_
 _atom_type_symbol
  Au
  Ir
loop_
 _atom_site_type_symbol
 _atom_site_label
 _atom_site_symmetry_multiplicity
 _atom_site_fract_x
 _atom_site_fract_y
 _atom_site_fract_z
 _atom_site_occupancy
  Au  Au0  1  0.00000000  0.00000000  0.00000000  1
  Ir  Ir0  1  0.26804000  0.76804000  0.50000000  1
  Ir  Ir1  1  0.50000000  0.50000000  1.00000000  1
  Ir  Ir2  1  0.73196000  0.23196000  0.50000000  1
