# generated using pymatgen
data_2510_Au8Cu4
_symmetry_space_group_name_H-M   'I4_1/amd'
_cell_length_a   3.98855366
_cell_length_b   3.98855366
_cell_length_c   12.59350636
_cell_angle_alpha   80.88842453
_cell_angle_beta   80.88842453
_cell_angle_gamma   90.00000000
_chemical_formula_structural   Au8Cu4
_chemical_formula_sum   'Au8 Cu4'
_cell_volume   195.25586646
loop_
 _symmetry_equiv_pos_site_id
 _symmetry_equiv_pos_as_xyz
  1  'x, y, z'
loop_
 _atom_type_symbol
  Au
  Cu
loop_
 _atom_site_type_symbol
 _atom_site_label
 _atom_site_symmetry_multiplicity
 _atom_site_fract_x
 _atom_site_fract_y
 _atom_site_fract_z
 _atom_site_occupancy
  Au  Au0  1  0.74870104  0.74870104  0.50259792  1
  Au  Au1  1  0.25129896  0.25129896  0.49740208  1
  Au  Au2  1  0.49870104  0.99870104  0.00259792  1
  Au  Au3  1  0.00129896  0.50129896  0.99740208  1
  Au  Au4  1  0.58543154  0.58543154  0.82913693  1
  Au  Au5  1  0.41456846  0.41456846  0.17086307  1
  Au  Au6  1  0.33543154  0.83543154  0.32913693  1
  Au  Au7  1  0.16456846  0.66456846  0.67086307  1
  Cu  Cu0  1  0.91455071  0.91455071  0.17089860  1
  Cu  Cu1  1  0.08544929  0.08544929  0.82910140  1
  Cu  Cu2  1  0.66455071  0.16455071  0.67089860  1
  Cu  Cu3  1  0.83544929  0.33544929  0.32910140  1
