# generated using pymatgen
data_2512_Ag4Mn2
_symmetry_space_group_name_H-M   'I4/mcm'
_cell_length_a   5.22436125
_cell_length_b   5.22436125
_cell_length_c   5.22436125
_cell_angle_alpha   104.67024604
_cell_angle_beta   104.67024604
_cell_angle_gamma   119.57014886
_chemical_formula_structural   Ag4Mn2
_chemical_formula_sum   'Ag4 Mn2'
_cell_volume   107.17194144
loop_
 _symmetry_equiv_pos_site_id
 _symmetry_equiv_pos_as_xyz
  1  'x, y, z'
loop_
 _atom_type_symbol
  Ag
  Mn
loop_
 _atom_site_type_symbol
 _atom_site_label
 _atom_site_symmetry_multiplicity
 _atom_site_fract_x
 _atom_site_fract_y
 _atom_site_fract_z
 _atom_site_occupancy
  Ag  Ag0  1  0.15456305  0.34543695  0.50000000  1
  Ag  Ag1  1  0.34543695  0.84543695  0.19087389  1
  Ag  Ag2  1  0.65456305  0.15456305  0.80912611  1
  Ag  Ag3  1  0.84543695  0.65456305  0.50000000  1
  Mn  Mn0  1  0.25000000  0.25000000  0.00000000  1
  Mn  Mn1  1  0.75000000  0.75000000  0.00000000  1
