# generated using pymatgen
data_2516_AgSn2
_symmetry_space_group_name_H-M   'I4/mmm'
_cell_length_a   7.06900195
_cell_length_b   7.06900195
_cell_length_c   7.06900195
_cell_angle_alpha   153.03662245
_cell_angle_beta   153.03662245
_cell_angle_gamma   38.50139043
_chemical_formula_structural   AgSn2
_chemical_formula_sum   'Ag1 Sn2'
_cell_volume   72.50347723
loop_
 _symmetry_equiv_pos_site_id
 _symmetry_equiv_pos_as_xyz
  1  'x, y, z'
loop_
 _atom_type_symbol
  Ag
  Sn
loop_
 _atom_site_type_symbol
 _atom_site_label
 _atom_site_symmetry_multiplicity
 _atom_site_fract_x
 _atom_site_fract_y
 _atom_site_fract_z
 _atom_site_occupancy
  Ag  Ag0  1  0.00000000  0.00000000  0.00000000  1
  Sn  Sn0  1  0.65055354  0.65055354  0.00000000  1
  Sn  Sn1  1  0.34944646  0.34944646  0.00000000  1
