# generated using pymatgen
data_251_Ba2Ni2
_symmetry_space_group_name_H-M   'P6_3mc'
_cell_length_a   4.72060909
_cell_length_b   4.72060909
_cell_length_c   7.69826742
_cell_angle_alpha   90.00000000
_cell_angle_beta   90.00000000
_cell_angle_gamma   119.99998191
_chemical_formula_structural   Ba2Ni2
_chemical_formula_sum   'Ba2 Ni2'
_cell_volume   148.56611981
loop_
 _symmetry_equiv_pos_site_id
 _symmetry_equiv_pos_as_xyz
  1  'x, y, z'
loop_
 _atom_type_symbol
  Ba
  Ni
loop_
 _atom_site_type_symbol
 _atom_site_label
 _atom_site_symmetry_multiplicity
 _atom_site_fract_x
 _atom_site_fract_y
 _atom_site_fract_z
 _atom_site_occupancy
  Ba  Ba0  1  0.00000000  0.00000000  0.00000071  1
  Ba  Ba1  1  0.33333333  0.66666667  0.50000071  1
  Ni  Ni0  1  0.00000000  0.00000000  0.37499929  1
  Ni  Ni1  1  0.33333333  0.66666667  0.87499929  1
