# generated using pymatgen
data_2521_Ta4V12
_symmetry_space_group_name_H-M   'Pnma'
_cell_length_a   5.28038985
_cell_length_b   8.77526001
_cell_length_c   5.17010322
_cell_angle_alpha   90.00000000
_cell_angle_beta   90.00000000
_cell_angle_gamma   90.00000000
_chemical_formula_structural   Ta4V12
_chemical_formula_sum   'Ta4 V12'
_cell_volume   239.56600728
loop_
 _symmetry_equiv_pos_site_id
 _symmetry_equiv_pos_as_xyz
  1  'x, y, z'
loop_
 _atom_type_symbol
  Ta
  V
loop_
 _atom_site_type_symbol
 _atom_site_label
 _atom_site_symmetry_multiplicity
 _atom_site_fract_x
 _atom_site_fract_y
 _atom_site_fract_z
 _atom_site_occupancy
  Ta  Ta0  1  0.99041627  0.75000000  0.65921651  1
  Ta  Ta1  1  0.50958373  0.25000000  0.15921651  1
  Ta  Ta2  1  0.49041627  0.75000000  0.84078349  1
  Ta  Ta3  1  0.00958373  0.25000000  0.34078349  1
  V  V0  1  0.98521375  0.25000000  0.83784123  1
  V  V1  1  0.26166464  0.98786063  0.40480879  1
  V  V2  1  0.26166464  0.51213937  0.40480879  1
  V  V3  1  0.23833536  0.48786063  0.90480879  1
  V  V4  1  0.23833536  0.01213937  0.90480879  1
  V  V5  1  0.51478625  0.75000000  0.33784123  1
  V  V6  1  0.48521375  0.25000000  0.66215877  1
  V  V7  1  0.76166464  0.98786063  0.09519121  1
  V  V8  1  0.76166464  0.51213937  0.09519121  1
  V  V9  1  0.73833536  0.48786063  0.59519121  1
  V  V10  1  0.73833536  0.01213937  0.59519121  1
  V  V11  1  0.01478625  0.75000000  0.16215877  1
