# generated using pymatgen
data_2524_K5Ni
_symmetry_space_group_name_H-M   'Cmmm'
_cell_length_a   9.36236571
_cell_length_b   9.36236571
_cell_length_c   5.64839990
_cell_angle_alpha   90.00000000
_cell_angle_beta   90.00000000
_cell_angle_gamma   143.58637833
_chemical_formula_structural   K5Ni
_chemical_formula_sum   'K5 Ni1'
_cell_volume   293.89893617
loop_
 _symmetry_equiv_pos_site_id
 _symmetry_equiv_pos_as_xyz
  1  'x, y, z'
loop_
 _atom_type_symbol
  K
  Ni
loop_
 _atom_site_type_symbol
 _atom_site_label
 _atom_site_symmetry_multiplicity
 _atom_site_fract_x
 _atom_site_fract_y
 _atom_site_fract_z
 _atom_site_occupancy
  K  K0  1  0.80811689  0.19188311  0.50000000  1
  K  K1  1  0.63299029  0.36700971  0.00000000  1
  K  K2  1  0.47205719  0.52794281  0.50000000  1
  K  K3  1  0.31178861  0.68821139  0.00000000  1
  K  K4  1  0.13582552  0.86417448  0.50000000  1
  Ni  Ni0  1  0.97255484  0.02744516  0.00000000  1
