# generated using pymatgen
data_2532_FeBi3
_symmetry_space_group_name_H-M   'Fm -3 m'
_cell_length_a   5.35295972
_cell_length_b   5.35295972
_cell_length_c   5.35295972
_cell_angle_alpha   60.00000000
_cell_angle_beta   60.00000000
_cell_angle_gamma   60.00000000
_chemical_formula_structural   FeBi3
_chemical_formula_sum   'Bi3 Fe1'
_cell_volume   108.45933300
loop_
 _symmetry_equiv_pos_site_id
 _symmetry_equiv_pos_as_xyz
  1  'x, y, z'
loop_
 _atom_type_symbol
  Bi
  Fe
loop_
 _atom_site_type_symbol
 _atom_site_label
 _atom_site_symmetry_multiplicity
 _atom_site_fract_x
 _atom_site_fract_y
 _atom_site_fract_z
 _atom_site_occupancy
  Bi  Bi0  1  0.00000000  0.00000000  0.00000000  1
  Bi  Bi1  1  0.24999952  0.24999952  0.24999952  1
  Bi  Bi2  1  0.50000035  0.50000035  0.50000035  1
  Fe  Fe0  1  0.74999986  0.74999986  0.74999986  1
