# generated using pymatgen
data_2534_Ag3Ni
_symmetry_space_group_name_H-M   'Pmm2'
_cell_length_a   2.85563447
_cell_length_b   4.65056740
_cell_length_c   4.90232207
_cell_angle_alpha   90.00000000
_cell_angle_beta   90.00000000
_cell_angle_gamma   90.00000000
_chemical_formula_structural   Ag3Ni
_chemical_formula_sum   'Ag3 Ni1'
_cell_volume   65.10440864
loop_
 _symmetry_equiv_pos_site_id
 _symmetry_equiv_pos_as_xyz
  1  'x, y, z'
loop_
 _atom_type_symbol
  Ag
  Ni
loop_
 _atom_site_type_symbol
 _atom_site_label
 _atom_site_symmetry_multiplicity
 _atom_site_fract_x
 _atom_site_fract_y
 _atom_site_fract_z
 _atom_site_occupancy
  Ag  Ag0  1  0.00000000  0.00000000  0.00714947  1
  Ag  Ag1  1  0.50000000  0.00000000  0.49282212  1
  Ag  Ag2  1  0.50000000  0.50000000  0.83257454  1
  Ni  Ni0  1  0.00000000  0.50000000  0.33412053  1
