# generated using pymatgen
data_253_Cu3Ge4
_symmetry_space_group_name_H-M   'I4/mmm'
_cell_length_a   9.68196496
_cell_length_b   9.68196496
_cell_length_c   9.68196496
_cell_angle_alpha   159.59637729
_cell_angle_beta   159.59637729
_cell_angle_gamma   29.01179369
_chemical_formula_structural   Cu3Ge4
_chemical_formula_sum   'Cu3 Ge4'
_cell_volume   110.25427033
loop_
 _symmetry_equiv_pos_site_id
 _symmetry_equiv_pos_as_xyz
  1  'x, y, z'
loop_
 _atom_type_symbol
  Cu
  Ge
loop_
 _atom_site_type_symbol
 _atom_site_label
 _atom_site_symmetry_multiplicity
 _atom_site_fract_x
 _atom_site_fract_y
 _atom_site_fract_z
 _atom_site_occupancy
  Cu  Cu0  1  0.00000000  0.00000000  0.00000000  1
  Cu  Cu1  1  0.71456180  0.71456180  0.00000000  1
  Cu  Cu2  1  0.28543820  0.28543820  0.00000000  1
  Ge  Ge0  1  0.84748793  0.84748793  0.00000000  1
  Ge  Ge1  1  0.15251207  0.15251207  0.00000000  1
  Ge  Ge2  1  0.57268299  0.57268299  0.00000000  1
  Ge  Ge3  1  0.42731701  0.42731701  0.00000000  1
