# generated using pymatgen
data_2543_Ba3Ta
_symmetry_space_group_name_H-M   'P4/mmm'
_cell_length_a   3.77598436
_cell_length_b   3.77598436
_cell_length_c   11.83132712
_cell_angle_alpha   90.00000000
_cell_angle_beta   90.00000000
_cell_angle_gamma   90.00110685
_chemical_formula_structural   Ba3Ta
_chemical_formula_sum   'Ba3 Ta1'
_cell_volume   168.69174737
loop_
 _symmetry_equiv_pos_site_id
 _symmetry_equiv_pos_as_xyz
  1  'x, y, z'
loop_
 _atom_type_symbol
  Ba
  Ta
loop_
 _atom_site_type_symbol
 _atom_site_label
 _atom_site_symmetry_multiplicity
 _atom_site_fract_x
 _atom_site_fract_y
 _atom_site_fract_z
 _atom_site_occupancy
  Ba  Ba0  1  0.00000000  0.00000000  0.05749459  1
  Ba  Ba1  1  0.50000000  0.50000000  0.75000000  1
  Ba  Ba2  1  0.00000000  0.00000000  0.44250541  1
  Ta  Ta0  1  0.50000000  0.50000000  0.25000000  1
