# generated using pymatgen
data_2550_AgSn
_symmetry_space_group_name_H-M   'P4/mmm'
_cell_length_a   5.30145997
_cell_length_b   5.29380700
_cell_length_c   6.42446764
_cell_angle_alpha   90.00000000
_cell_angle_beta   90.00000000
_cell_angle_gamma   90.00000000
_chemical_formula_structural   AgSn
_chemical_formula_sum   'Ag4 Sn4'
_cell_volume   180.30207977
loop_
 _symmetry_equiv_pos_site_id
 _symmetry_equiv_pos_as_xyz
  1  'x, y, z'
loop_
 _atom_type_symbol
  Ag
  Sn
loop_
 _atom_site_type_symbol
 _atom_site_label
 _atom_site_symmetry_multiplicity
 _atom_site_fract_x
 _atom_site_fract_y
 _atom_site_fract_z
 _atom_site_occupancy
  Ag  Ag0  1  0.75000000  0.75015446  0.25052432  1
  Ag  Ag1  1  0.25000000  0.25015446  0.24947568  1
  Ag  Ag2  1  0.75000000  0.74984554  0.75052432  1
  Ag  Ag3  1  0.25000000  0.24984554  0.74947568  1
  Sn  Sn0  1  0.75000000  0.24968601  0.99968918  1
  Sn  Sn1  1  0.25000000  0.74968601  0.50031082  1
  Sn  Sn2  1  0.75000000  0.25031399  0.49968918  1
  Sn  Sn3  1  0.25000000  0.75031399  0.00031082  1
