# generated using pymatgen
data_2556_Au5Cr4
_symmetry_space_group_name_H-M   'I4/mmm'
_cell_length_a   3.32031118
_cell_length_b   6.72241286
_cell_length_c   6.72241286
_cell_angle_alpha   86.50345233
_cell_angle_beta   104.29759221
_cell_angle_gamma   104.29759221
_chemical_formula_structural   Au5Cr4
_chemical_formula_sum   'Au5 Cr4'
_cell_volume   140.89646893
loop_
 _symmetry_equiv_pos_site_id
 _symmetry_equiv_pos_as_xyz
  1  'x, y, z'
loop_
 _atom_type_symbol
  Au
  Cr
loop_
 _atom_site_type_symbol
 _atom_site_label
 _atom_site_symmetry_multiplicity
 _atom_site_fract_x
 _atom_site_fract_y
 _atom_site_fract_z
 _atom_site_occupancy
  Au  Au0  1  0.00000000  0.00000000  0.00000000  1
  Au  Au1  1  0.33173707  1.00000000  0.66347415  1
  Au  Au2  1  0.66826293  0.33652585  0.00000000  1
  Au  Au3  1  0.33173707  0.66347415  0.00000000  1
  Au  Au4  1  0.66826293  1.00000000  0.33652585  1
  Cr  Cr0  1  0.36313665  0.36313665  0.36313665  1
  Cr  Cr1  1  0.63686335  0.63686335  0.63686335  1
  Cr  Cr2  1  0.00000000  0.63686335  0.36313665  1
  Cr  Cr3  1  0.00000000  0.36313665  0.63686335  1
