# generated using pymatgen
data_2557_RbSr
_symmetry_space_group_name_H-M   'P-6m2'
_cell_length_a   4.44131053
_cell_length_b   4.44129617
_cell_length_c   7.81116477
_cell_angle_alpha   90.00000000
_cell_angle_beta   90.00000000
_cell_angle_gamma   120.00010083
_chemical_formula_structural   RbSr
_chemical_formula_sum   'Rb1 Sr1'
_cell_volume   133.43411042
loop_
 _symmetry_equiv_pos_site_id
 _symmetry_equiv_pos_as_xyz
  1  'x, y, z'
loop_
 _atom_type_symbol
  Rb
  Sr
loop_
 _atom_site_type_symbol
 _atom_site_label
 _atom_site_symmetry_multiplicity
 _atom_site_fract_x
 _atom_site_fract_y
 _atom_site_fract_z
 _atom_site_occupancy
  Rb  Rb0  1  0.66666753  0.33333407  0.75000000  1
  Sr  Sr0  1  0.33333247  0.66666593  0.25000000  1
