# generated using pymatgen
data_2558_AlK5
_symmetry_space_group_name_H-M   'P4/mmm'
_cell_length_a   4.39440775
_cell_length_b   4.39440775
_cell_length_c   18.25361375
_cell_angle_alpha   90.00000000
_cell_angle_beta   90.00000000
_cell_angle_gamma   90.00000000
_chemical_formula_structural   AlK5
_chemical_formula_sum   'Al1 K5'
_cell_volume   352.49223986
loop_
 _symmetry_equiv_pos_site_id
 _symmetry_equiv_pos_as_xyz
  1  'x, y, z'
loop_
 _atom_type_symbol
  Al
  K
loop_
 _atom_site_type_symbol
 _atom_site_label
 _atom_site_symmetry_multiplicity
 _atom_site_fract_x
 _atom_site_fract_y
 _atom_site_fract_z
 _atom_site_occupancy
  Al  Al0  1  0.50000000  0.50000000  0.00000000  1
  K  K0  1  0.00000000  0.00000000  0.89120063  1
  K  K1  1  0.00000000  0.00000000  0.10879937  1
  K  K2  1  0.50000000  0.50000000  0.70046519  1
  K  K3  1  0.50000000  0.50000000  0.29953481  1
  K  K4  1  0.00000000  0.00000000  0.50000000  1
