# generated using pymatgen
data_2559_Ca2Ga2
_symmetry_space_group_name_H-M   'Cmcm'
_cell_length_a   6.21790657
_cell_length_b   6.21790657
_cell_length_c   4.47642146
_cell_angle_alpha   90.00000000
_cell_angle_beta   90.00000000
_cell_angle_gamma   139.65565445
_chemical_formula_structural   Ca2Ga2
_chemical_formula_sum   'Ca2 Ga2'
_cell_volume   112.04140504
loop_
 _symmetry_equiv_pos_site_id
 _symmetry_equiv_pos_as_xyz
  1  'x, y, z'
loop_
 _atom_type_symbol
  Ca
  Ga
loop_
 _atom_site_type_symbol
 _atom_site_label
 _atom_site_symmetry_multiplicity
 _atom_site_fract_x
 _atom_site_fract_y
 _atom_site_fract_z
 _atom_site_occupancy
  Ca  Ca0  1  0.35491806  0.64508194  0.75000000  1
  Ca  Ca1  1  0.64508194  0.35491806  0.25000000  1
  Ga  Ga0  1  0.06662224  0.93337776  0.75000000  1
  Ga  Ga1  1  0.93337776  0.06662224  0.25000000  1
