# generated using pymatgen
data_255_Mo2Pb2
_symmetry_space_group_name_H-M   'Cmcm'
_cell_length_a   5.64678608
_cell_length_b   5.64678608
_cell_length_c   4.43831290
_cell_angle_alpha   90.00000000
_cell_angle_beta   90.00000000
_cell_angle_gamma   142.99184167
_chemical_formula_structural   Mo2Pb2
_chemical_formula_sum   'Mo2 Pb2'
_cell_volume   85.18549742
loop_
 _symmetry_equiv_pos_site_id
 _symmetry_equiv_pos_as_xyz
  1  'x, y, z'
loop_
 _atom_type_symbol
  Mo
  Pb
loop_
 _atom_site_type_symbol
 _atom_site_label
 _atom_site_symmetry_multiplicity
 _atom_site_fract_x
 _atom_site_fract_y
 _atom_site_fract_z
 _atom_site_occupancy
  Mo  Mo0  1  0.56361027  0.43638973  0.75000000  1
  Mo  Mo1  1  0.43638973  0.56361027  0.25000000  1
  Pb  Pb0  1  0.84396545  0.15603455  0.75000000  1
  Pb  Pb1  1  0.15603455  0.84396545  0.25000000  1
