# generated using pymatgen
data_2566_MnV
_symmetry_space_group_name_H-M   'R -3 m'
_cell_length_a   4.02990499
_cell_length_b   4.02990499
_cell_length_c   4.02990450
_cell_angle_alpha   39.67817117
_cell_angle_beta   39.67817117
_cell_angle_gamma   39.67817477
_chemical_formula_structural   MnV
_chemical_formula_sum   'Mn1 V1'
_cell_volume   24.02380833
loop_
 _symmetry_equiv_pos_site_id
 _symmetry_equiv_pos_as_xyz
  1  'x, y, z'
loop_
 _atom_type_symbol
  Mn
  V
loop_
 _atom_site_type_symbol
 _atom_site_label
 _atom_site_symmetry_multiplicity
 _atom_site_fract_x
 _atom_site_fract_y
 _atom_site_fract_z
 _atom_site_occupancy
  Mn  Mn0  1  0.00000000  0.00000000  0.00000000  1
  V  V0  1  0.49999965  0.49999965  0.49999996  1
