# generated using pymatgen
data_2573_Cr4Nb16
_symmetry_space_group_name_H-M   'I-43m'
_cell_length_a   7.84836298
_cell_length_b   7.84836298
_cell_length_c   7.84836298
_cell_angle_alpha   109.47122063
_cell_angle_beta   109.47122063
_cell_angle_gamma   109.47122063
_chemical_formula_structural   Cr4Nb16
_chemical_formula_sum   'Cr4 Nb16'
_cell_volume   372.14771026
loop_
 _symmetry_equiv_pos_site_id
 _symmetry_equiv_pos_as_xyz
  1  'x, y, z'
loop_
 _atom_type_symbol
  Cr
  Nb
loop_
 _atom_site_type_symbol
 _atom_site_label
 _atom_site_symmetry_multiplicity
 _atom_site_fract_x
 _atom_site_fract_y
 _atom_site_fract_z
 _atom_site_occupancy
  Cr  Cr0  1  0.68701635  0.00000000  0.00000000  1
  Cr  Cr1  1  0.31298365  0.31298365  0.31298365  1
  Cr  Cr2  1  1.00000000  1.00000000  0.68701635  1
  Cr  Cr3  1  0.00000000  0.68701635  0.00000000  1
  Nb  Nb0  1  0.37516086  0.00000000  0.00000000  1
  Nb  Nb1  1  0.62483914  0.62483914  0.62483914  1
  Nb  Nb2  1  0.00000000  0.00000000  0.37516086  1
  Nb  Nb3  1  1.00000000  0.37516086  0.00000000  1
  Nb  Nb4  1  0.32861245  0.32861245  0.00000000  1
  Nb  Nb5  1  0.67138755  0.67138755  0.00000000  1
  Nb  Nb6  1  0.32861245  0.00000000  0.32861245  1
  Nb  Nb7  1  0.67138755  1.00000000  0.67138755  1
  Nb  Nb8  1  0.00000000  0.67138755  0.67138755  1
  Nb  Nb9  1  1.00000000  0.32861245  0.32861245  1
  Nb  Nb10  1  0.74999923  0.24999923  0.50000000  1
  Nb  Nb11  1  0.25000077  0.75000077  0.50000000  1
  Nb  Nb12  1  0.24999923  0.50000000  0.74999923  1
  Nb  Nb13  1  0.75000077  0.50000000  0.25000077  1
  Nb  Nb14  1  0.50000000  0.25000077  0.75000077  1
  Nb  Nb15  1  0.50000000  0.74999923  0.24999923  1
