# generated using pymatgen
data_2580_Al2Ta
_symmetry_space_group_name_H-M   'I4/mmm'
_cell_length_a   6.64939659
_cell_length_b   6.64939659
_cell_length_c   6.64939659
_cell_angle_alpha   155.56843240
_cell_angle_beta   155.56843240
_cell_angle_gamma   34.82382329
_chemical_formula_structural   Al2Ta
_chemical_formula_sum   'Al2 Ta1'
_cell_volume   50.23923870
loop_
 _symmetry_equiv_pos_site_id
 _symmetry_equiv_pos_as_xyz
  1  'x, y, z'
loop_
 _atom_type_symbol
  Al
  Ta
loop_
 _atom_site_type_symbol
 _atom_site_label
 _atom_site_symmetry_multiplicity
 _atom_site_fract_x
 _atom_site_fract_y
 _atom_site_fract_z
 _atom_site_occupancy
  Al  Al0  1  0.33469257  0.33469257  0.00000000  1
  Al  Al1  1  0.66530743  0.66530743  0.00000000  1
  Ta  Ta0  1  0.00000000  0.00000000  0.00000000  1
