# generated using pymatgen
data_2584_PdRh4
_symmetry_space_group_name_H-M   'I4/m'
_cell_length_a   6.10738141
_cell_length_b   6.10738141
_cell_length_c   4.72958382
_cell_angle_alpha   49.78501844
_cell_angle_beta   49.78501828
_cell_angle_gamma   90.00000000
_chemical_formula_structural   PdRh4
_chemical_formula_sum   'Pd1 Rh4'
_cell_volume   71.93129420
loop_
 _symmetry_equiv_pos_site_id
 _symmetry_equiv_pos_as_xyz
  1  'x, y, z'
loop_
 _atom_type_symbol
  Pd
  Rh
loop_
 _atom_site_type_symbol
 _atom_site_label
 _atom_site_symmetry_multiplicity
 _atom_site_fract_x
 _atom_site_fract_y
 _atom_site_fract_z
 _atom_site_occupancy
  Pd  Pd0  1  0.00000000  0.00000000  0.00000000  1
  Rh  Rh0  1  0.80303861  0.59842228  0.00000000  1
  Rh  Rh1  1  0.19696139  0.40157772  0.00000000  1
  Rh  Rh2  1  0.59842228  0.19696139  0.00000000  1
  Rh  Rh3  1  0.40157772  0.80303861  0.00000000  1
