# generated using pymatgen
data_258_Cr5Nb
_symmetry_space_group_name_H-M   'F-43m'
_cell_length_a   4.79314289
_cell_length_b   4.79314289
_cell_length_c   4.79314289
_cell_angle_alpha   120.00000000
_cell_angle_beta   120.00000000
_cell_angle_gamma   60.00000000
_chemical_formula_structural   Cr5Nb
_chemical_formula_sum   'Cr5 Nb1'
_cell_volume   77.86568888
loop_
 _symmetry_equiv_pos_site_id
 _symmetry_equiv_pos_as_xyz
  1  'x, y, z'
loop_
 _atom_type_symbol
  Cr
  Nb
loop_
 _atom_site_type_symbol
 _atom_site_label
 _atom_site_symmetry_multiplicity
 _atom_site_fract_x
 _atom_site_fract_y
 _atom_site_fract_z
 _atom_site_occupancy
  Cr  Cr0  1  0.37515175  0.37515175  0.62484825  1
  Cr  Cr1  1  0.75000000  0.75000000  0.25000000  1
  Cr  Cr2  1  0.87454476  0.37515175  0.62484825  1
  Cr  Cr3  1  0.37515175  0.37515175  0.12545524  1
  Cr  Cr4  1  0.37515175  0.87454476  0.62484825  1
  Nb  Nb0  1  0.00000000  0.00000000  0.00000000  1
