# generated using pymatgen
data_2591_Al16Cu36
_symmetry_space_group_name_H-M   'P-43m'
_cell_length_a   8.68479658
_cell_length_b   8.68479658
_cell_length_c   8.68479658
_cell_angle_alpha   90.00000000
_cell_angle_beta   90.00000000
_cell_angle_gamma   90.00000000
_chemical_formula_structural   Al16Cu36
_chemical_formula_sum   'Al16 Cu36'
_cell_volume   655.05678876
loop_
 _symmetry_equiv_pos_site_id
 _symmetry_equiv_pos_as_xyz
  1  'x, y, z'
loop_
 _atom_type_symbol
  Al
  Cu
loop_
 _atom_site_type_symbol
 _atom_site_label
 _atom_site_symmetry_multiplicity
 _atom_site_fract_x
 _atom_site_fract_y
 _atom_site_fract_z
 _atom_site_occupancy
  Al  Al0  1  0.12073262  0.12073262  0.12073262  1
  Al  Al1  1  0.87926738  0.87926738  0.12073262  1
  Al  Al2  1  0.53484288  0.19035278  0.19035278  1
  Al  Al3  1  0.80964722  0.46515712  0.19035278  1
  Al  Al4  1  0.19035278  0.53484288  0.19035278  1
  Al  Al5  1  0.46515712  0.80964722  0.19035278  1
  Al  Al6  1  0.80964722  0.19035278  0.46515712  1
  Al  Al7  1  0.19035278  0.80964722  0.46515712  1
  Al  Al8  1  0.19035278  0.19035278  0.53484288  1
  Al  Al9  1  0.80964722  0.80964722  0.53484288  1
  Al  Al10  1  0.46515712  0.19035278  0.80964722  1
  Al  Al11  1  0.19035278  0.46515712  0.80964722  1
  Al  Al12  1  0.80964722  0.53484288  0.80964722  1
  Al  Al13  1  0.53484288  0.80964722  0.80964722  1
  Al  Al14  1  0.87926738  0.12073262  0.87926738  1
  Al  Al15  1  0.12073262  0.87926738  0.87926738  1
  Cu  Cu0  1  0.35614157  0.00000000  0.00000000  1
  Cu  Cu1  1  0.64385843  0.00000000  0.00000000  1
  Cu  Cu2  1  0.00000000  0.35614157  0.00000000  1
  Cu  Cu3  1  0.00000000  0.64385843  0.00000000  1
  Cu  Cu4  1  0.31621511  0.31621511  0.03090825  1
  Cu  Cu5  1  0.68378489  0.68378489  0.03090825  1
  Cu  Cu6  1  0.50000000  0.50000000  0.14503878  1
  Cu  Cu7  1  0.83061812  0.16938188  0.16938188  1
  Cu  Cu8  1  0.16938188  0.83061812  0.16938188  1
  Cu  Cu9  1  0.31621511  0.03090825  0.31621511  1
  Cu  Cu10  1  0.03090825  0.31621511  0.31621511  1
  Cu  Cu11  1  0.96909175  0.68378489  0.31621511  1
  Cu  Cu12  1  0.68378489  0.96909175  0.31621511  1
  Cu  Cu13  1  0.32552420  0.32552420  0.32552420  1
  Cu  Cu14  1  0.67447580  0.67447580  0.32552420  1
  Cu  Cu15  1  0.00000000  0.00000000  0.35614157  1
  Cu  Cu16  1  0.60589669  0.39410331  0.39410331  1
  Cu  Cu17  1  0.39410331  0.60589669  0.39410331  1
  Cu  Cu18  1  0.50000000  0.14503878  0.50000000  1
  Cu  Cu19  1  0.14503878  0.50000000  0.50000000  1
  Cu  Cu20  1  0.85496122  0.50000000  0.50000000  1
  Cu  Cu21  1  0.50000000  0.85496122  0.50000000  1
  Cu  Cu22  1  0.39410331  0.39410331  0.60589669  1
  Cu  Cu23  1  0.60589669  0.60589669  0.60589669  1
  Cu  Cu24  1  0.00000000  0.00000000  0.64385843  1
  Cu  Cu25  1  0.67447580  0.32552420  0.67447580  1
  Cu  Cu26  1  0.32552420  0.67447580  0.67447580  1
  Cu  Cu27  1  0.68378489  0.03090825  0.68378489  1
  Cu  Cu28  1  0.96909175  0.31621511  0.68378489  1
  Cu  Cu29  1  0.03090825  0.68378489  0.68378489  1
  Cu  Cu30  1  0.31621511  0.96909175  0.68378489  1
  Cu  Cu31  1  0.16938188  0.16938188  0.83061812  1
  Cu  Cu32  1  0.83061812  0.83061812  0.83061812  1
  Cu  Cu33  1  0.50000000  0.50000000  0.85496122  1
  Cu  Cu34  1  0.68378489  0.31621511  0.96909175  1
  Cu  Cu35  1  0.31621511  0.68378489  0.96909175  1
