# generated using pymatgen
data_2594_Al2Rh2
_symmetry_space_group_name_H-M   'Pmmn'
_cell_length_a   2.87205625
_cell_length_b   3.75975209
_cell_length_c   5.30761960
_cell_angle_alpha   90.00000000
_cell_angle_beta   90.00000000
_cell_angle_gamma   90.00000000
_chemical_formula_structural   Al2Rh2
_chemical_formula_sum   'Al2 Rh2'
_cell_volume   57.31284140
loop_
 _symmetry_equiv_pos_site_id
 _symmetry_equiv_pos_as_xyz
  1  'x, y, z'
loop_
 _atom_type_symbol
  Al
  Rh
loop_
 _atom_site_type_symbol
 _atom_site_label
 _atom_site_symmetry_multiplicity
 _atom_site_fract_x
 _atom_site_fract_y
 _atom_site_fract_z
 _atom_site_occupancy
  Al  Al0  1  0.00000000  0.00000000  0.02947506  1
  Al  Al1  1  0.50000000  0.50000000  0.72052494  1
  Rh  Rh0  1  0.00000000  0.00000000  0.54185699  1
  Rh  Rh1  1  0.50000000  0.50000000  0.20814301  1
