# generated using pymatgen
data_2595_As2Br6
_symmetry_space_group_name_H-M   'Pm -3 n'
_cell_length_a   5.82076393
_cell_length_b   5.82076393
_cell_length_c   5.82076393
_cell_angle_alpha   90.00000000
_cell_angle_beta   90.00000000
_cell_angle_gamma   90.00000000
_chemical_formula_structural   As2Br6
_chemical_formula_sum   'As2 Br6'
_cell_volume   197.21500662
loop_
 _symmetry_equiv_pos_site_id
 _symmetry_equiv_pos_as_xyz
  1  'x, y, z'
loop_
 _atom_type_symbol
  As
  Br
loop_
 _atom_site_type_symbol
 _atom_site_label
 _atom_site_symmetry_multiplicity
 _atom_site_fract_x
 _atom_site_fract_y
 _atom_site_fract_z
 _atom_site_occupancy
  As  As0  1  0.00000000  0.00000000  0.00000000  1
  As  As1  1  0.50000000  0.50000000  0.50000000  1
  Br  Br0  1  0.75000000  0.50000000  0.00000000  1
  Br  Br1  1  0.25000000  0.50000000  0.00000000  1
  Br  Br2  1  0.00000000  0.75000000  0.50000000  1
  Br  Br3  1  0.00000000  0.25000000  0.50000000  1
  Br  Br4  1  0.50000000  0.00000000  0.25000000  1
  Br  Br5  1  0.50000000  0.00000000  0.75000000  1
