# generated using pymatgen
data_2596_FeV3
_symmetry_space_group_name_H-M   'Immm'
_cell_length_a   2.91449384
_cell_length_b   4.87496633
_cell_length_c   4.09684016
_cell_angle_alpha   114.74683541
_cell_angle_beta   90.00000000
_cell_angle_gamma   107.39301816
_chemical_formula_structural   FeV3
_chemical_formula_sum   'Fe1 V3'
_cell_volume   49.91701361
loop_
 _symmetry_equiv_pos_site_id
 _symmetry_equiv_pos_as_xyz
  1  'x, y, z'
loop_
 _atom_type_symbol
  Fe
  V
loop_
 _atom_site_type_symbol
 _atom_site_label
 _atom_site_symmetry_multiplicity
 _atom_site_fract_x
 _atom_site_fract_y
 _atom_site_fract_z
 _atom_site_occupancy
  Fe  Fe0  1  0.00000000  0.00000000  0.00000000  1
  V  V0  1  0.74686939  0.49373878  0.24720617  1
  V  V1  1  0.50000000  0.00000000  0.50000000  1
  V  V2  1  0.25313061  0.50626122  0.75279383  1
