# generated using pymatgen
data_2600_Ag4Al
_symmetry_space_group_name_H-M   'I4/m'
_cell_length_a   4.11790755
_cell_length_b   5.02199713
_cell_length_c   5.02389021
_cell_angle_alpha   80.44123401
_cell_angle_beta   114.18854925
_cell_angle_gamma   114.14159125
_chemical_formula_structural   Ag4Al
_chemical_formula_sum   'Ag4 Al1'
_cell_volume   86.48369396
loop_
 _symmetry_equiv_pos_site_id
 _symmetry_equiv_pos_as_xyz
  1  'x, y, z'
loop_
 _atom_type_symbol
  Ag
  Al
loop_
 _atom_site_type_symbol
 _atom_site_label
 _atom_site_symmetry_multiplicity
 _atom_site_fract_x
 _atom_site_fract_y
 _atom_site_fract_z
 _atom_site_occupancy
  Ag  Ag0  1  0.99733640  0.99378867  0.00078663  1
  Ag  Ag1  1  0.80347338  0.20081721  0.40612268  1
  Ag  Ag2  1  0.59652662  0.39918279  0.79387732  1
  Ag  Ag3  1  0.40266360  0.60621133  0.19921337  1
  Al  Al0  1  0.20000000  0.80000000  0.60000000  1
