# generated using pymatgen
data_2601_AlSr3
_symmetry_space_group_name_H-M   'Immm'
_cell_length_a   7.56441328
_cell_length_b   7.56441328
_cell_length_c   7.56441328
_cell_angle_alpha   148.28501396
_cell_angle_beta   131.56514295
_cell_angle_gamma   59.05969120
_chemical_formula_structural   AlSr3
_chemical_formula_sum   'Al1 Sr3'
_cell_volume   168.85107718
loop_
 _symmetry_equiv_pos_site_id
 _symmetry_equiv_pos_as_xyz
  1  'x, y, z'
loop_
 _atom_type_symbol
  Al
  Sr
loop_
 _atom_site_type_symbol
 _atom_site_label
 _atom_site_symmetry_multiplicity
 _atom_site_fract_x
 _atom_site_fract_y
 _atom_site_fract_z
 _atom_site_occupancy
  Al  Al0  1  0.50000000  0.00000000  0.50000000  1
  Sr  Sr0  1  0.30208485  0.30208485  0.00000000  1
  Sr  Sr1  1  0.69791515  0.69791515  0.00000000  1
  Sr  Sr2  1  0.00000000  0.50000000  0.50000000  1
