# generated using pymatgen
data_2604_PbAs3
_symmetry_space_group_name_H-M   'Immm'
_cell_length_a   5.79579159
_cell_length_b   5.79579159
_cell_length_c   5.79579159
_cell_angle_alpha   144.09114356
_cell_angle_beta   125.46160814
_cell_angle_gamma   67.03876116
_chemical_formula_structural   PbAs3
_chemical_formula_sum   'As3 Pb1'
_cell_volume   91.69669779
loop_
 _symmetry_equiv_pos_site_id
 _symmetry_equiv_pos_as_xyz
  1  'x, y, z'
loop_
 _atom_type_symbol
  As
  Pb
loop_
 _atom_site_type_symbol
 _atom_site_label
 _atom_site_symmetry_multiplicity
 _atom_site_fract_x
 _atom_site_fract_y
 _atom_site_fract_z
 _atom_site_occupancy
  As  As0  1  0.03623306  0.95617965  0.08005341  1
  As  As1  1  0.62387376  0.54382035  0.08005341  1
  As  As2  1  0.83801674  0.25000000  0.58801674  1
  Pb  Pb0  1  0.33520977  0.75000000  0.58520977  1
