# generated using pymatgen
data_2606_BaSn5
_symmetry_space_group_name_H-M   'Cmmm'
_cell_length_a   6.97237710
_cell_length_b   6.97237710
_cell_length_c   5.46622148
_cell_angle_alpha   90.00000000
_cell_angle_beta   90.00000000
_cell_angle_gamma   136.12662355
_chemical_formula_structural   BaSn5
_chemical_formula_sum   'Ba1 Sn5'
_cell_volume   184.17222729
loop_
 _symmetry_equiv_pos_site_id
 _symmetry_equiv_pos_as_xyz
  1  'x, y, z'
loop_
 _atom_type_symbol
  Ba
  Sn
loop_
 _atom_site_type_symbol
 _atom_site_label
 _atom_site_symmetry_multiplicity
 _atom_site_fract_x
 _atom_site_fract_y
 _atom_site_fract_z
 _atom_site_occupancy
  Ba  Ba0  1  0.97225173  0.02774827  0.00000000  1
  Sn  Sn0  1  0.79220292  0.20779708  0.50000000  1
  Sn  Sn1  1  0.66202524  0.33797476  0.00000000  1
  Sn  Sn2  1  0.47204434  0.52795566  0.50000000  1
  Sn  Sn3  1  0.28250270  0.71749730  0.00000000  1
  Sn  Sn4  1  0.15230641  0.84769359  0.50000000  1
