# generated using pymatgen
data_260_CuNi
_symmetry_space_group_name_H-M   'F-43m'
_cell_length_a   3.66324446
_cell_length_b   3.66324446
_cell_length_c   3.66324446
_cell_angle_alpha   60.00000000
_cell_angle_beta   60.00000000
_cell_angle_gamma   60.00000000
_chemical_formula_structural   CuNi
_chemical_formula_sum   'Cu1 Ni1'
_cell_volume   34.76023527
loop_
 _symmetry_equiv_pos_site_id
 _symmetry_equiv_pos_as_xyz
  1  'x, y, z'
loop_
 _atom_type_symbol
  Cu
  Ni
loop_
 _atom_site_type_symbol
 _atom_site_label
 _atom_site_symmetry_multiplicity
 _atom_site_fract_x
 _atom_site_fract_y
 _atom_site_fract_z
 _atom_site_occupancy
  Cu  Cu0  1  0.00000000  0.00000000  0.00000000  1
  Ni  Ni0  1  0.25000149  0.25000149  0.25000149  1
