# generated using pymatgen
data_2611_FeIr8
_symmetry_space_group_name_H-M   'I4/mmm'
_cell_length_a   3.84069008
_cell_length_b   6.07149012
_cell_length_c   6.07149012
_cell_angle_alpha   95.74139782
_cell_angle_beta   108.43864212
_cell_angle_gamma   71.56135788
_chemical_formula_structural   FeIr8
_chemical_formula_sum   'Fe1 Ir8'
_cell_volume   127.41591979
loop_
 _symmetry_equiv_pos_site_id
 _symmetry_equiv_pos_as_xyz
  1  'x, y, z'
loop_
 _atom_type_symbol
  Fe
  Ir
loop_
 _atom_site_type_symbol
 _atom_site_label
 _atom_site_symmetry_multiplicity
 _atom_site_fract_x
 _atom_site_fract_y
 _atom_site_fract_z
 _atom_site_occupancy
  Fe  Fe0  1  0.00000000  0.00000000  0.00000000  1
  Ir  Ir0  1  0.66400739  0.00000000  0.32801478  1
  Ir  Ir1  1  0.33599261  0.00000000  0.67198522  1
  Ir  Ir2  1  1.00000000  0.33030052  0.33030052  1
  Ir  Ir3  1  0.33599261  0.32801478  0.00000000  1
  Ir  Ir4  1  0.66969948  0.33030052  0.66969948  1
  Ir  Ir5  1  0.66400739  0.67198522  0.00000000  1
  Ir  Ir6  1  0.00000000  0.66969948  0.66969948  1
  Ir  Ir7  1  0.33030052  0.66969948  0.33030052  1
