# generated using pymatgen
data_2613_Ta2Ge2
_symmetry_space_group_name_H-M   'Cmcm'
_cell_length_a   4.99832419
_cell_length_b   4.99832419
_cell_length_c   4.33802612
_cell_angle_alpha   90.00000000
_cell_angle_beta   90.00000000
_cell_angle_gamma   141.21335444
_chemical_formula_structural   Ta2Ge2
_chemical_formula_sum   'Ge2 Ta2'
_cell_volume   67.89035947
loop_
 _symmetry_equiv_pos_site_id
 _symmetry_equiv_pos_as_xyz
  1  'x, y, z'
loop_
 _atom_type_symbol
  Ge
  Ta
loop_
 _atom_site_type_symbol
 _atom_site_label
 _atom_site_symmetry_multiplicity
 _atom_site_fract_x
 _atom_site_fract_y
 _atom_site_fract_z
 _atom_site_occupancy
  Ge  Ge0  1  0.58877600  0.41122400  0.75000000  1
  Ge  Ge1  1  0.41122400  0.58877600  0.25000000  1
  Ta  Ta0  1  0.86548747  0.13451253  0.75000000  1
  Ta  Ta1  1  0.13451253  0.86548747  0.25000000  1
