# generated using pymatgen
data_2614_Ba2V
_symmetry_space_group_name_H-M   'I4/mmm'
_cell_length_a   8.03545180
_cell_length_b   8.03545180
_cell_length_c   5.84541785
_cell_angle_alpha   90.00000000
_cell_angle_beta   90.00000000
_cell_angle_gamma   137.32873797
_chemical_formula_structural   Ba2V
_chemical_formula_sum   'Ba4 V2'
_cell_volume   255.81849633
loop_
 _symmetry_equiv_pos_site_id
 _symmetry_equiv_pos_as_xyz
  1  'x, y, z'
loop_
 _atom_type_symbol
  Ba
  V
loop_
 _atom_site_type_symbol
 _atom_site_label
 _atom_site_symmetry_multiplicity
 _atom_site_fract_x
 _atom_site_fract_y
 _atom_site_fract_z
 _atom_site_occupancy
  Ba  Ba0  1  0.88576601  0.61523524  0.75000000  1
  Ba  Ba1  1  0.11423399  0.38476476  0.25000000  1
  Ba  Ba2  1  0.61523524  0.88576601  0.75000000  1
  Ba  Ba3  1  0.38476476  0.11423399  0.25000000  1
  V  V0  1  0.25010456  0.25010456  0.75000000  1
  V  V1  1  0.74989544  0.74989544  0.25000000  1
