# generated using pymatgen
data_2619_Ag2Mn4
_symmetry_space_group_name_H-M   'I4_1/amd'
_cell_length_a   7.43980488
_cell_length_b   7.43980488
_cell_length_c   7.43980488
_cell_angle_alpha   152.91108543
_cell_angle_beta   152.91108543
_cell_angle_gamma   38.68428661
_chemical_formula_structural   Ag2Mn4
_chemical_formula_sum   'Ag2 Mn4'
_cell_volume   85.24835515
loop_
 _symmetry_equiv_pos_site_id
 _symmetry_equiv_pos_as_xyz
  1  'x, y, z'
loop_
 _atom_type_symbol
  Ag
  Mn
loop_
 _atom_site_type_symbol
 _atom_site_label
 _atom_site_symmetry_multiplicity
 _atom_site_fract_x
 _atom_site_fract_y
 _atom_site_fract_z
 _atom_site_occupancy
  Ag  Ag0  1  0.00000000  0.00000000  0.00000000  1
  Ag  Ag1  1  0.75000000  0.25000000  0.50000000  1
  Mn  Mn0  1  0.16583994  0.66583994  0.50000000  1
  Mn  Mn1  1  0.33416006  0.83416006  0.50000000  1
  Mn  Mn2  1  0.41583994  0.41583994  0.00000000  1
  Mn  Mn3  1  0.58416006  0.58416006  0.00000000  1
