# generated using pymatgen
data_2620_Ta2V2
_symmetry_space_group_name_H-M   'Imma'
_cell_length_a   4.50503176
_cell_length_b   5.26640795
_cell_length_c   3.15679807
_cell_angle_alpha   72.55976960
_cell_angle_beta   90.00000000
_cell_angle_gamma   115.32256573
_chemical_formula_structural   Ta2V2
_chemical_formula_sum   'Ta2 V2'
_cell_volume   63.86991411
loop_
 _symmetry_equiv_pos_site_id
 _symmetry_equiv_pos_as_xyz
  1  'x, y, z'
loop_
 _atom_type_symbol
  Ta
  V
loop_
 _atom_site_type_symbol
 _atom_site_label
 _atom_site_symmetry_multiplicity
 _atom_site_fract_x
 _atom_site_fract_y
 _atom_site_fract_z
 _atom_site_occupancy
  Ta  Ta0  1  0.99271527  0.98543053  0.00728473  1
  Ta  Ta1  1  0.25728473  0.51456947  0.24271527  1
  V  V0  1  0.51097271  0.02194543  0.48902729  1
  V  V1  1  0.73902729  0.47805457  0.76097271  1
