# generated using pymatgen
data_2621_Ag2Sn4
_symmetry_space_group_name_H-M   'I4_1/amd'
_cell_length_a   13.84353629
_cell_length_b   13.84353629
_cell_length_c   13.84353629
_cell_angle_alpha   166.32665002
_cell_angle_beta   166.32665002
_cell_angle_gamma   19.38348675
_chemical_formula_structural   Ag2Sn4
_chemical_formula_sum   'Ag2 Sn4'
_cell_volume   148.23152760
loop_
 _symmetry_equiv_pos_site_id
 _symmetry_equiv_pos_as_xyz
  1  'x, y, z'
loop_
 _atom_type_symbol
  Ag
  Sn
loop_
 _atom_site_type_symbol
 _atom_site_label
 _atom_site_symmetry_multiplicity
 _atom_site_fract_x
 _atom_site_fract_y
 _atom_site_fract_z
 _atom_site_occupancy
  Ag  Ag0  1  0.00000000  0.00000000  0.00000000  1
  Ag  Ag1  1  0.25000000  0.75000000  0.50000000  1
  Sn  Sn0  1  0.57308005  0.57308005  0.00000000  1
  Sn  Sn1  1  0.67691995  0.17691995  0.50000000  1
  Sn  Sn2  1  0.42691995  0.42691995  0.00000000  1
  Sn  Sn3  1  0.82308005  0.32308005  0.50000000  1
