# generated using pymatgen
data_2624_Ca3Rh
_symmetry_space_group_name_H-M   'P4/mmm'
_cell_length_a   3.53015135
_cell_length_b   3.53015135
_cell_length_c   9.71489790
_cell_angle_alpha   90.00000000
_cell_angle_beta   90.00000000
_cell_angle_gamma   90.00000000
_chemical_formula_structural   Ca3Rh
_chemical_formula_sum   'Ca3 Rh1'
_cell_volume   121.06675213
loop_
 _symmetry_equiv_pos_site_id
 _symmetry_equiv_pos_as_xyz
  1  'x, y, z'
loop_
 _atom_type_symbol
  Ca
  Rh
loop_
 _atom_site_type_symbol
 _atom_site_label
 _atom_site_symmetry_multiplicity
 _atom_site_fract_x
 _atom_site_fract_y
 _atom_site_fract_z
 _atom_site_occupancy
  Ca  Ca0  1  0.50000000  0.50000000  0.82958392  1
  Ca  Ca1  1  0.00000000  0.00000000  0.50000000  1
  Ca  Ca2  1  0.50000000  0.50000000  0.17041608  1
  Rh  Rh0  1  0.00000000  0.00000000  0.00000000  1
