# generated using pymatgen
data_2632_P3Br
_symmetry_space_group_name_H-M   'Im -3 m'
_cell_length_a   4.58986903
_cell_length_b   4.58986903
_cell_length_c   4.58986904
_cell_angle_alpha   109.49962311
_cell_angle_beta   109.49962311
_cell_angle_gamma   109.49962293
_chemical_formula_structural   P3Br
_chemical_formula_sum   'Br1 P3'
_cell_volume   74.35693110
loop_
 _symmetry_equiv_pos_site_id
 _symmetry_equiv_pos_as_xyz
  1  'x, y, z'
loop_
 _atom_type_symbol
  Br
  P
loop_
 _atom_site_type_symbol
 _atom_site_label
 _atom_site_symmetry_multiplicity
 _atom_site_fract_x
 _atom_site_fract_y
 _atom_site_fract_z
 _atom_site_occupancy
  Br  Br0  1  0.00000000  0.00000000  0.00000000  1
  P  P0  1  0.00000000  0.50000000  0.50000000  1
  P  P1  1  0.50000000  0.00000000  0.50000000  1
  P  P2  1  0.50000000  0.50000000  1.00000000  1
