# generated using pymatgen
data_2637_Ga4Na2
_symmetry_space_group_name_H-M   'I4/mcm'
_cell_length_a   5.72489389
_cell_length_b   5.72489389
_cell_length_c   5.72489389
_cell_angle_alpha   105.63831730
_cell_angle_beta   105.63831730
_cell_angle_gamma   117.44340485
_chemical_formula_structural   Ga4Na2
_chemical_formula_sum   'Ga4 Na2'
_cell_volume   142.31327487
loop_
 _symmetry_equiv_pos_site_id
 _symmetry_equiv_pos_as_xyz
  1  'x, y, z'
loop_
 _atom_type_symbol
  Ga
  Na
loop_
 _atom_site_type_symbol
 _atom_site_label
 _atom_site_symmetry_multiplicity
 _atom_site_fract_x
 _atom_site_fract_y
 _atom_site_fract_z
 _atom_site_occupancy
  Ga  Ga0  1  0.36557078  0.13442922  0.50000000  1
  Ga  Ga1  1  0.63442922  0.86557078  0.50000000  1
  Ga  Ga2  1  0.13442922  0.63442922  0.76885844  1
  Ga  Ga3  1  0.86557078  0.36557078  0.23114156  1
  Na  Na0  1  0.75000000  0.75000000  0.00000000  1
  Na  Na1  1  0.25000000  0.25000000  0.00000000  1
