# generated using pymatgen
data_2639_GaNa2
_symmetry_space_group_name_H-M   'I4/mmm'
_cell_length_a   7.52203467
_cell_length_b   7.52203467
_cell_length_c   7.52203467
_cell_angle_alpha   154.22829021
_cell_angle_beta   154.22829021
_cell_angle_gamma   36.76787399
_chemical_formula_structural   GaNa2
_chemical_formula_sum   'Ga1 Na2'
_cell_volume   80.34567656
loop_
 _symmetry_equiv_pos_site_id
 _symmetry_equiv_pos_as_xyz
  1  'x, y, z'
loop_
 _atom_type_symbol
  Ga
  Na
loop_
 _atom_site_type_symbol
 _atom_site_label
 _atom_site_symmetry_multiplicity
 _atom_site_fract_x
 _atom_site_fract_y
 _atom_site_fract_z
 _atom_site_occupancy
  Ga  Ga0  1  0.00000000  0.00000000  0.00000000  1
  Na  Na0  1  0.35437442  0.35437442  0.00000000  1
  Na  Na1  1  0.64562558  0.64562558  0.00000000  1
