# generated using pymatgen
data_2646_Al2Cu
_symmetry_space_group_name_H-M   'Immm'
_cell_length_a   4.77750487
_cell_length_b   4.77750487
_cell_length_c   4.77750487
_cell_angle_alpha   146.12401688
_cell_angle_beta   133.17524501
_cell_angle_gamma   59.03742376
_chemical_formula_structural   Al2Cu
_chemical_formula_sum   'Al2 Cu1'
_cell_volume   43.93836709
loop_
 _symmetry_equiv_pos_site_id
 _symmetry_equiv_pos_as_xyz
  1  'x, y, z'
loop_
 _atom_type_symbol
  Al
  Cu
loop_
 _atom_site_type_symbol
 _atom_site_label
 _atom_site_symmetry_multiplicity
 _atom_site_fract_x
 _atom_site_fract_y
 _atom_site_fract_z
 _atom_site_occupancy
  Al  Al0  1  0.33793960  0.33793960  0.00000000  1
  Al  Al1  1  0.66206040  0.66206040  0.00000000  1
  Cu  Cu0  1  0.00000000  0.00000000  0.00000000  1
