# generated using pymatgen
data_2733_AlCu2
_symmetry_space_group_name_H-M   'I4/mmm'
_cell_length_a   4.63676801
_cell_length_b   4.63676801
_cell_length_c   4.63676801
_cell_angle_alpha   141.74247721
_cell_angle_beta   141.74247721
_cell_angle_gamma   55.21690410
_chemical_formula_structural   AlCu2
_chemical_formula_sum   'Al1 Cu2'
_cell_volume   37.94358090
loop_
 _symmetry_equiv_pos_site_id
 _symmetry_equiv_pos_as_xyz
  1  'x, y, z'
loop_
 _atom_type_symbol
  Al
  Cu
loop_
 _atom_site_type_symbol
 _atom_site_label
 _atom_site_symmetry_multiplicity
 _atom_site_fract_x
 _atom_site_fract_y
 _atom_site_fract_z
 _atom_site_occupancy
  Al  Al0  1  0.00000000  0.00000000  0.00000000  1
  Cu  Cu0  1  0.33347172  0.33347172  0.00000000  1
  Cu  Cu1  1  0.66652828  0.66652828  0.00000000  1
