# generated using pymatgen
data_2735_Rh3P
_symmetry_space_group_name_H-M   'Pm -3 m'
_cell_length_a   3.79260569
_cell_length_b   3.79260569
_cell_length_c   3.79260569
_cell_angle_alpha   90.00000000
_cell_angle_beta   90.00000000
_cell_angle_gamma   90.00000000
_chemical_formula_structural   Rh3P
_chemical_formula_sum   'P1 Rh3'
_cell_volume   54.55230139
loop_
 _symmetry_equiv_pos_site_id
 _symmetry_equiv_pos_as_xyz
  1  'x, y, z'
loop_
 _atom_type_symbol
  P
  Rh
loop_
 _atom_site_type_symbol
 _atom_site_label
 _atom_site_symmetry_multiplicity
 _atom_site_fract_x
 _atom_site_fract_y
 _atom_site_fract_z
 _atom_site_occupancy
  P  P0  1  0.00000000  0.00000000  0.00000000  1
  Rh  Rh0  1  0.49999997  0.49999997  0.00000000  1
  Rh  Rh1  1  0.49999997  0.00000000  0.49999997  1
  Rh  Rh2  1  0.00000000  0.49999997  0.49999997  1
