# generated using pymatgen
data_2737_Al6Rb2
_symmetry_space_group_name_H-M   'P6_3/mmc'
_cell_length_a   7.95106500
_cell_length_b   7.95106538
_cell_length_c   4.65854900
_cell_angle_alpha   90.00000000
_cell_angle_beta   90.00000000
_cell_angle_gamma   119.99999428
_chemical_formula_structural   Al6Rb2
_chemical_formula_sum   'Al6 Rb2'
_cell_volume   255.05389071
loop_
 _symmetry_equiv_pos_site_id
 _symmetry_equiv_pos_as_xyz
  1  'x, y, z'
loop_
 _atom_type_symbol
  Al
  Rb
loop_
 _atom_site_type_symbol
 _atom_site_label
 _atom_site_symmetry_multiplicity
 _atom_site_fract_x
 _atom_site_fract_y
 _atom_site_fract_z
 _atom_site_occupancy
  Al  Al0  1  0.11409307  0.22818617  0.25000061  1
  Al  Al1  1  0.11409253  0.88590838  0.25000061  1
  Al  Al2  1  0.77181574  0.88590838  0.25000061  1
  Al  Al3  1  0.22818551  0.11409236  0.74999970  1
  Al  Al4  1  0.88590745  0.11409236  0.74999970  1
  Al  Al5  1  0.88590692  0.77181457  0.74999970  1
  Rb  Rb0  1  0.66666722  0.33333261  0.25000061  1
  Rb  Rb1  1  0.33333402  0.66666813  0.74999970  1
