# generated using pymatgen
data_2738_Ni2Sr2
_symmetry_space_group_name_H-M   'I4_1/amd'
_cell_length_a   5.99889679
_cell_length_b   5.99889679
_cell_length_c   5.99889679
_cell_angle_alpha   138.73776237
_cell_angle_beta   138.73776237
_cell_angle_gamma   59.77493929
_chemical_formula_structural   Ni2Sr2
_chemical_formula_sum   'Ni2 Sr2'
_cell_volume   92.94898986
loop_
 _symmetry_equiv_pos_site_id
 _symmetry_equiv_pos_as_xyz
  1  'x, y, z'
loop_
 _atom_type_symbol
  Ni
  Sr
loop_
 _atom_site_type_symbol
 _atom_site_label
 _atom_site_symmetry_multiplicity
 _atom_site_fract_x
 _atom_site_fract_y
 _atom_site_fract_z
 _atom_site_occupancy
  Ni  Ni0  1  0.00000000  0.00000000  0.00000000  1
  Ni  Ni1  1  0.25000000  0.75000000  0.50000000  1
  Sr  Sr0  1  0.50000000  0.50000000  0.00000000  1
  Sr  Sr1  1  0.75000000  0.25000000  0.50000000  1
