# generated using pymatgen
data_2741_Nb2Rh4
_symmetry_space_group_name_H-M   'I4_1/amd'
_cell_length_a   10.48163740
_cell_length_b   3.15362833
_cell_length_c   3.15362833
_cell_angle_alpha   90.00000000
_cell_angle_beta   81.34781369
_cell_angle_gamma   98.65218631
_chemical_formula_structural   Nb2Rh4
_chemical_formula_sum   'Nb2 Rh4'
_cell_volume   101.85732718
loop_
 _symmetry_equiv_pos_site_id
 _symmetry_equiv_pos_as_xyz
  1  'x, y, z'
loop_
 _atom_type_symbol
  Nb
  Rh
loop_
 _atom_site_type_symbol
 _atom_site_label
 _atom_site_symmetry_multiplicity
 _atom_site_fract_x
 _atom_site_fract_y
 _atom_site_fract_z
 _atom_site_occupancy
  Nb  Nb0  1  0.00000000  0.00000000  0.00000000  1
  Nb  Nb1  1  0.50000000  0.25000000  0.25000000  1
  Rh  Rh0  1  0.36010925  0.68005463  0.81994537  1
  Rh  Rh1  1  0.63989075  0.81994537  0.68005463  1
  Rh  Rh2  1  0.86010925  0.43005463  0.56994537  1
  Rh  Rh3  1  0.13989075  0.56994537  0.43005463  1
