# generated using pymatgen
data_2748_Pb7I14
_symmetry_space_group_name_H-M   'P3m1'
_cell_length_a   4.66309751
_cell_length_b   4.66309772
_cell_length_c   53.25963578
_cell_angle_alpha   90.00000000
_cell_angle_beta   90.00000000
_cell_angle_gamma   119.99999844
_chemical_formula_structural   Pb7I14
_chemical_formula_sum   'I14 Pb7'
_cell_volume   1002.94667857
loop_
 _symmetry_equiv_pos_site_id
 _symmetry_equiv_pos_as_xyz
  1  'x, y, z'
loop_
 _atom_type_symbol
  I
  Pb
loop_
 _atom_site_type_symbol
 _atom_site_label
 _atom_site_symmetry_multiplicity
 _atom_site_fract_x
 _atom_site_fract_y
 _atom_site_fract_z
 _atom_site_occupancy
  Pb  Pb0  1  0.33333300  0.66666700  0.18084791  1
  Pb  Pb1  1  0.33333300  0.66666700  0.46631322  1
  Pb  Pb2  1  0.00000000  0.00000000  0.89509945  1
  Pb  Pb3  1  0.33333300  0.66666700  0.75172574  1
  Pb  Pb4  1  0.33333300  0.66666700  0.60899530  1
  Pb  Pb5  1  0.33333300  0.66666700  0.32381823  1
  Pb  Pb6  1  0.33333300  0.66666700  0.03819839  1
  I  I0  1  0.66666700  0.33333300  0.93029237  1
  I  I1  1  0.00000000  0.00000000  0.43114204  1
  I  I2  1  0.66666700  0.33333300  0.07338293  1
  I  I3  1  0.66666700  0.33333300  0.78691670  1
  I  I4  1  0.00000000  0.00000000  0.14564868  1
  I  I5  1  0.66666700  0.33333300  0.35900557  1
  I  I6  1  0.33333300  0.66666700  0.85990720  1
  I  I7  1  0.00000000  0.00000000  0.00303797  1
  I  I8  1  0.66666700  0.33333300  0.64417613  1
  I  I9  1  0.00000000  0.00000000  0.57379728  1
  I  I10  1  0.00000000  0.00000000  0.28867866  1
  I  I11  1  0.66666700  0.33333300  0.21601252  1
  I  I12  1  0.66666700  0.33333300  0.50144612  1
  I  I13  1  0.00000000  0.00000000  0.71655759  1
