# generated using pymatgen
data_2759_P2As6
_symmetry_space_group_name_H-M   'Cmcm'
_cell_length_a   7.63187814
_cell_length_b   7.63187814
_cell_length_c   3.57758599
_cell_angle_alpha   90.00000000
_cell_angle_beta   90.00000000
_cell_angle_gamma   122.85685302
_chemical_formula_structural   P2As6
_chemical_formula_sum   'As6 P2'
_cell_volume   175.04392533
loop_
 _symmetry_equiv_pos_site_id
 _symmetry_equiv_pos_as_xyz
  1  'x, y, z'
loop_
 _atom_type_symbol
  As
  P
loop_
 _atom_site_type_symbol
 _atom_site_label
 _atom_site_symmetry_multiplicity
 _atom_site_fract_x
 _atom_site_fract_y
 _atom_site_fract_z
 _atom_site_occupancy
  As  As0  1  0.91428697  0.08571303  0.75000000  1
  As  As1  1  0.08571303  0.91428697  0.25000000  1
  As  As2  1  0.94773104  0.60463846  0.75000000  1
  As  As3  1  0.05226896  0.39536154  0.25000000  1
  As  As4  1  0.39536154  0.05226896  0.75000000  1
  As  As5  1  0.60463846  0.94773104  0.25000000  1
  P  P0  1  0.44342758  0.55657242  0.25000000  1
  P  P1  1  0.55657242  0.44342758  0.75000000  1
