# generated using pymatgen
data_2766_K2Pd
_symmetry_space_group_name_H-M   'Immm'
_cell_length_a   8.28587081
_cell_length_b   8.27446434
_cell_length_c   3.58542961
_cell_angle_alpha   77.48561825
_cell_angle_beta   77.35188933
_cell_angle_gamma   29.56818587
_chemical_formula_structural   K2Pd
_chemical_formula_sum   'K2 Pd1'
_cell_volume   118.18316919
loop_
 _symmetry_equiv_pos_site_id
 _symmetry_equiv_pos_as_xyz
  1  'x, y, z'
loop_
 _atom_type_symbol
  K
  Pd
loop_
 _atom_site_type_symbol
 _atom_site_label
 _atom_site_symmetry_multiplicity
 _atom_site_fract_x
 _atom_site_fract_y
 _atom_site_fract_z
 _atom_site_occupancy
  K  K0  1  0.94987186  0.95106165  0.05022944  1
  K  K1  1  0.71679481  0.71560502  0.28310390  1
  Pd  Pd0  1  0.33333333  0.33333333  0.66666667  1
