# generated using pymatgen
data_276_K5Ge
_symmetry_space_group_name_H-M   'Amm2'
_cell_length_a   11.13996946
_cell_length_b   11.13996946
_cell_length_c   6.45030279
_cell_angle_alpha   90.00000000
_cell_angle_beta   90.00000000
_cell_angle_gamma   155.43072749
_chemical_formula_structural   K5Ge
_chemical_formula_sum   'Ge1 K5'
_cell_volume   332.83224422
loop_
 _symmetry_equiv_pos_site_id
 _symmetry_equiv_pos_as_xyz
  1  'x, y, z'
loop_
 _atom_type_symbol
  Ge
  K
loop_
 _atom_site_type_symbol
 _atom_site_label
 _atom_site_symmetry_multiplicity
 _atom_site_fract_x
 _atom_site_fract_y
 _atom_site_fract_z
 _atom_site_occupancy
  Ge  Ge0  1  0.99765013  0.00234987  0.00000000  1
  K  K0  1  0.37864988  0.62135012  0.00000000  1
  K  K1  1  0.61382206  0.38617794  0.00000000  1
  K  K2  1  0.46365640  0.53634360  0.50000000  1
  K  K3  1  0.78367241  0.21632759  0.50000000  1
  K  K4  1  0.09588245  0.90411755  0.50000000  1
