# generated using pymatgen
data_2771_Ga2Ni
_symmetry_space_group_name_H-M   'I4/mmm'
_cell_length_a   4.52891974
_cell_length_b   3.28511875
_cell_length_c   3.21544019
_cell_angle_alpha   90.00000000
_cell_angle_beta   69.20718384
_cell_angle_gamma   68.73497832
_chemical_formula_structural   Ga2Ni
_chemical_formula_sum   'Ga2 Ni1'
_cell_volume   41.22094242
loop_
 _symmetry_equiv_pos_site_id
 _symmetry_equiv_pos_as_xyz
  1  'x, y, z'
loop_
 _atom_type_symbol
  Ga
  Ni
loop_
 _atom_site_type_symbol
 _atom_site_label
 _atom_site_symmetry_multiplicity
 _atom_site_fract_x
 _atom_site_fract_y
 _atom_site_fract_z
 _atom_site_occupancy
  Ga  Ga0  1  0.01099451  0.99450275  0.99450275  1
  Ga  Ga1  1  0.65567216  0.67216392  0.67216392  1
  Ni  Ni0  1  0.33333333  0.33333333  0.33333333  1
