# generated using pymatgen
data_2773_AlSm
_symmetry_space_group_name_H-M   'R -3 m'
_cell_length_a   5.09186151
_cell_length_b   5.09186151
_cell_length_c   5.09186141
_cell_angle_alpha   42.46443614
_cell_angle_beta   42.46443614
_cell_angle_gamma   42.46445112
_chemical_formula_structural   AlSm
_chemical_formula_sum   'Al1 Sm1'
_cell_volume   54.48236321
loop_
 _symmetry_equiv_pos_site_id
 _symmetry_equiv_pos_as_xyz
  1  'x, y, z'
loop_
 _atom_type_symbol
  Al
  Sm
loop_
 _atom_site_type_symbol
 _atom_site_label
 _atom_site_symmetry_multiplicity
 _atom_site_fract_x
 _atom_site_fract_y
 _atom_site_fract_z
 _atom_site_occupancy
  Al  Al0  1  0.00000000  0.00000000  0.00000000  1
  Sm  Sm0  1  0.50000000  0.50000000  0.50000000  1
