# generated using pymatgen
data_2774_Ca2Cu2
_symmetry_space_group_name_H-M   'Cmcm'
_cell_length_a   5.80060546
_cell_length_b   5.80060546
_cell_length_c   4.30001953
_cell_angle_alpha   90.00000000
_cell_angle_beta   90.00000000
_cell_angle_gamma   138.59615323
_chemical_formula_structural   Ca2Cu2
_chemical_formula_sum   'Ca2 Cu2'
_cell_volume   95.68777764
loop_
 _symmetry_equiv_pos_site_id
 _symmetry_equiv_pos_as_xyz
  1  'x, y, z'
loop_
 _atom_type_symbol
  Ca
  Cu
loop_
 _atom_site_type_symbol
 _atom_site_label
 _atom_site_symmetry_multiplicity
 _atom_site_fract_x
 _atom_site_fract_y
 _atom_site_fract_z
 _atom_site_occupancy
  Ca  Ca0  1  0.14165768  0.85834232  0.25000000  1
  Ca  Ca1  1  0.85834232  0.14165768  0.75000000  1
  Cu  Cu0  1  0.43994835  0.56005165  0.25000000  1
  Cu  Cu1  1  0.56005165  0.43994835  0.75000000  1
