# generated using pymatgen
data_2776_Al4Ce2
_symmetry_space_group_name_H-M   'P4_2/mnm'
_cell_length_a   5.92177012
_cell_length_b   5.92177012
_cell_length_c   5.65143843
_cell_angle_alpha   90.00000000
_cell_angle_beta   90.00000000
_cell_angle_gamma   90.00000000
_chemical_formula_structural   Al4Ce2
_chemical_formula_sum   'Al4 Ce2'
_cell_volume   198.18103360
loop_
 _symmetry_equiv_pos_site_id
 _symmetry_equiv_pos_as_xyz
  1  'x, y, z'
loop_
 _atom_type_symbol
  Al
  Ce
loop_
 _atom_site_type_symbol
 _atom_site_label
 _atom_site_symmetry_multiplicity
 _atom_site_fract_x
 _atom_site_fract_y
 _atom_site_fract_z
 _atom_site_occupancy
  Al  Al0  1  0.35090607  0.35090607  0.00000000  1
  Al  Al1  1  0.64909393  0.64909393  0.00000000  1
  Al  Al2  1  0.85090607  0.14909393  0.50000000  1
  Al  Al3  1  0.14909393  0.85090607  0.50000000  1
  Ce  Ce0  1  0.00000000  0.00000000  0.00000000  1
  Ce  Ce1  1  0.50000000  0.50000000  0.50000000  1
