# generated using pymatgen
data_2779_Nb3Br
_symmetry_space_group_name_H-M   'Pmm2'
_cell_length_a   3.29142206
_cell_length_b   4.85376740
_cell_length_c   4.84206810
_cell_angle_alpha   90.00000000
_cell_angle_beta   90.00000000
_cell_angle_gamma   90.00000000
_chemical_formula_structural   Nb3Br
_chemical_formula_sum   'Br1 Nb3'
_cell_volume   77.35589748
loop_
 _symmetry_equiv_pos_site_id
 _symmetry_equiv_pos_as_xyz
  1  'x, y, z'
loop_
 _atom_type_symbol
  Br
  Nb
loop_
 _atom_site_type_symbol
 _atom_site_label
 _atom_site_symmetry_multiplicity
 _atom_site_fract_x
 _atom_site_fract_y
 _atom_site_fract_z
 _atom_site_occupancy
  Br  Br0  1  0.00000000  0.00000000  0.03459685  1
  Nb  Nb0  1  0.50000000  0.00000000  0.47583871  1
  Nb  Nb1  1  0.50000000  0.50000000  0.79681788  1
  Nb  Nb2  1  0.00000000  0.50000000  0.35941323  1
