# generated using pymatgen
data_2782_W3P
_symmetry_space_group_name_H-M   'I4/mmm'
_cell_length_a   5.17431960
_cell_length_b   5.17431960
_cell_length_c   5.17431960
_cell_angle_alpha   138.16885211
_cell_angle_beta   138.16885211
_cell_angle_gamma   60.64449198
_chemical_formula_structural   W3P
_chemical_formula_sum   'P1 W3'
_cell_volume   60.96039021
loop_
 _symmetry_equiv_pos_site_id
 _symmetry_equiv_pos_as_xyz
  1  'x, y, z'
loop_
 _atom_type_symbol
  P
  W
loop_
 _atom_site_type_symbol
 _atom_site_label
 _atom_site_symmetry_multiplicity
 _atom_site_fract_x
 _atom_site_fract_y
 _atom_site_fract_z
 _atom_site_occupancy
  P  P0  1  0.00000000  0.00000000  0.00000000  1
  W  W0  1  0.25000000  0.75000000  0.50000000  1
  W  W1  1  0.50000000  0.50000000  0.00000000  1
  W  W2  1  0.75000000  0.25000000  0.50000000  1
