# generated using pymatgen
data_278_Al12Sn4
_symmetry_space_group_name_H-M   'Pnma'
_cell_length_a   5.85052032
_cell_length_b   6.25150147
_cell_length_c   8.82644635
_cell_angle_alpha   90.00000000
_cell_angle_beta   90.00000000
_cell_angle_gamma   90.00000000
_chemical_formula_structural   Al12Sn4
_chemical_formula_sum   'Al12 Sn4'
_cell_volume   322.82318314
loop_
 _symmetry_equiv_pos_site_id
 _symmetry_equiv_pos_as_xyz
  1  'x, y, z'
loop_
 _atom_type_symbol
  Al
  Sn
loop_
 _atom_site_type_symbol
 _atom_site_label
 _atom_site_symmetry_multiplicity
 _atom_site_fract_x
 _atom_site_fract_y
 _atom_site_fract_z
 _atom_site_occupancy
  Al  Al0  1  0.12504291  0.90089837  0.75000000  1
  Al  Al1  1  0.62504291  0.59910163  0.25000000  1
  Al  Al2  1  0.37495709  0.40089837  0.75000000  1
  Al  Al3  1  0.87495709  0.09910163  0.25000000  1
  Al  Al4  1  0.62696289  0.30608854  0.01280771  1
  Al  Al5  1  0.12696289  0.19391146  0.98719229  1
  Al  Al6  1  0.87303711  0.80608854  0.48719229  1
  Al  Al7  1  0.37303711  0.69391146  0.51280771  1
  Al  Al8  1  0.37303711  0.69391146  0.98719229  1
  Al  Al9  1  0.87303711  0.80608854  0.01280771  1
  Al  Al10  1  0.12696289  0.19391146  0.51280771  1
  Al  Al11  1  0.62696289  0.30608854  0.48719229  1
  Sn  Sn0  1  0.60901110  0.98358958  0.75000000  1
  Sn  Sn1  1  0.10901110  0.51641042  0.25000000  1
  Sn  Sn2  1  0.89098890  0.48358958  0.75000000  1
  Sn  Sn3  1  0.39098890  0.01641042  0.25000000  1
