# generated using pymatgen
data_2792_AlNi5
_symmetry_space_group_name_H-M   'Amm2'
_cell_length_a   6.49479252
_cell_length_b   6.49479252
_cell_length_c   4.05671869
_cell_angle_alpha   90.00000000
_cell_angle_beta   90.00000000
_cell_angle_gamma   156.99428678
_chemical_formula_structural   AlNi5
_chemical_formula_sum   'Al1 Ni5'
_cell_volume   66.87833861
loop_
 _symmetry_equiv_pos_site_id
 _symmetry_equiv_pos_as_xyz
  1  'x, y, z'
loop_
 _atom_type_symbol
  Al
  Ni
loop_
 _atom_site_type_symbol
 _atom_site_label
 _atom_site_symmetry_multiplicity
 _atom_site_fract_x
 _atom_site_fract_y
 _atom_site_fract_z
 _atom_site_occupancy
  Al  Al0  1  0.00406026  0.99593974  0.00000000  1
  Ni  Ni0  1  0.67082008  0.32917992  0.00000000  1
  Ni  Ni1  1  0.33704032  0.66295968  0.00000000  1
  Ni  Ni2  1  0.55335056  0.44664944  0.50000000  1
  Ni  Ni3  1  0.21851608  0.78148392  0.50000000  1
  Ni  Ni4  1  0.88287937  0.11712063  0.50000000  1
