# generated using pymatgen
data_2797_Al2Na2
_symmetry_space_group_name_H-M   'Cmme'
_cell_length_a   3.09084200
_cell_length_b   3.09084200
_cell_length_c   9.85253545
_cell_angle_alpha   90.00000000
_cell_angle_beta   90.00000000
_cell_angle_gamma   92.28127765
_chemical_formula_structural   Al2Na2
_chemical_formula_sum   'Al2 Na2'
_cell_volume   94.04967153
loop_
 _symmetry_equiv_pos_site_id
 _symmetry_equiv_pos_as_xyz
  1  'x, y, z'
loop_
 _atom_type_symbol
  Al
  Na
loop_
 _atom_site_type_symbol
 _atom_site_label
 _atom_site_symmetry_multiplicity
 _atom_site_fract_x
 _atom_site_fract_y
 _atom_site_fract_z
 _atom_site_occupancy
  Al  Al0  1  0.00000000  0.00000000  0.96505581  1
  Al  Al1  1  0.50000000  0.50000000  0.78494419  1
  Na  Na0  1  0.00000000  0.00000000  0.53957780  1
  Na  Na1  1  0.50000000  0.50000000  0.21042220  1
