# generated using pymatgen
data_2798_Pd5Sr
_symmetry_space_group_name_H-M   'P6/mmm'
_cell_length_a   5.42417602
_cell_length_b   5.42417601
_cell_length_c   4.42816200
_cell_angle_alpha   90.00000000
_cell_angle_beta   90.00000000
_cell_angle_gamma   120.00904619
_chemical_formula_structural   Pd5Sr
_chemical_formula_sum   'Pd5 Sr1'
_cell_volume   112.81895800
loop_
 _symmetry_equiv_pos_site_id
 _symmetry_equiv_pos_as_xyz
  1  'x, y, z'
loop_
 _atom_type_symbol
  Pd
  Sr
loop_
 _atom_site_type_symbol
 _atom_site_label
 _atom_site_symmetry_multiplicity
 _atom_site_fract_x
 _atom_site_fract_y
 _atom_site_fract_z
 _atom_site_occupancy
  Pd  Pd0  1  0.66669693  0.33339555  0.00000000  1
  Pd  Pd1  1  0.33339526  0.66669565  0.00000000  1
  Pd  Pd2  1  0.50000183  0.00000302  0.49999982  1
  Pd  Pd3  1  0.49999963  0.49999876  0.49999982  1
  Pd  Pd4  1  0.00000283  0.50000213  0.49999982  1
  Sr  Sr0  1  0.00000291  0.00000213  0.00000000  1
