# generated using pymatgen
data_2800_AlNi3
_symmetry_space_group_name_H-M   'I4/mmm'
_cell_length_a   4.32431583
_cell_length_b   4.32431583
_cell_length_c   4.32431583
_cell_angle_alpha   131.51783864
_cell_angle_beta   130.06693218
_cell_angle_gamma   72.14944778
_chemical_formula_structural   AlNi3
_chemical_formula_sum   'Al1 Ni3'
_cell_volume   45.30604476
loop_
 _symmetry_equiv_pos_site_id
 _symmetry_equiv_pos_as_xyz
  1  'x, y, z'
loop_
 _atom_type_symbol
  Al
  Ni
loop_
 _atom_site_type_symbol
 _atom_site_label
 _atom_site_symmetry_multiplicity
 _atom_site_fract_x
 _atom_site_fract_y
 _atom_site_fract_z
 _atom_site_occupancy
  Al  Al0  1  0.50000000  0.00000000  0.50000000  1
  Ni  Ni0  1  0.25044266  0.25044266  1.00000000  1
  Ni  Ni1  1  0.74955734  0.74955734  1.00000000  1
  Ni  Ni2  1  0.00000000  0.50000000  0.50000000  1
