# generated using pymatgen
data_2801_Al6Sb2
_symmetry_space_group_name_H-M   'I4/mmm'
_cell_length_a   10.87491207
_cell_length_b   10.87491207
_cell_length_c   10.87491207
_cell_angle_alpha   158.94260930
_cell_angle_beta   158.94260930
_cell_angle_gamma   29.95222788
_chemical_formula_structural   Al6Sb2
_chemical_formula_sum   'Al6 Sb2'
_cell_volume   165.93555132
loop_
 _symmetry_equiv_pos_site_id
 _symmetry_equiv_pos_as_xyz
  1  'x, y, z'
loop_
 _atom_type_symbol
  Al
  Sb
loop_
 _atom_site_type_symbol
 _atom_site_label
 _atom_site_symmetry_multiplicity
 _atom_site_fract_x
 _atom_site_fract_y
 _atom_site_fract_z
 _atom_site_occupancy
  Al  Al0  1  0.50000000  0.00000000  0.50000000  1
  Al  Al1  1  0.00000000  0.50000000  0.50000000  1
  Al  Al2  1  0.25000000  0.75000000  0.50000000  1
  Al  Al3  1  0.75000000  0.25000000  0.50000000  1
  Al  Al4  1  0.84544151  0.84544151  0.00000000  1
  Al  Al5  1  0.15455849  0.15455849  0.00000000  1
  Sb  Sb0  1  0.60909045  0.60909045  0.00000000  1
  Sb  Sb1  1  0.39090955  0.39090955  0.00000000  1
