# generated using pymatgen
data_2815_Na5Pd
_symmetry_space_group_name_H-M   'P4/mmm'
_cell_length_a   3.42589915
_cell_length_b   3.42589915
_cell_length_c   14.71456740
_cell_angle_alpha   90.00000000
_cell_angle_beta   90.00000000
_cell_angle_gamma   90.00000000
_chemical_formula_structural   Na5Pd
_chemical_formula_sum   'Na5 Pd1'
_cell_volume   172.70171374
loop_
 _symmetry_equiv_pos_site_id
 _symmetry_equiv_pos_as_xyz
  1  'x, y, z'
loop_
 _atom_type_symbol
  Na
  Pd
loop_
 _atom_site_type_symbol
 _atom_site_label
 _atom_site_symmetry_multiplicity
 _atom_site_fract_x
 _atom_site_fract_y
 _atom_site_fract_z
 _atom_site_occupancy
  Na  Na0  1  0.00000000  0.00000000  0.88531694  1
  Na  Na1  1  0.00000000  0.00000000  0.11468306  1
  Na  Na2  1  0.50000000  0.50000000  0.68806084  1
  Na  Na3  1  0.50000000  0.50000000  0.31193916  1
  Na  Na4  1  0.00000000  0.00000000  0.50000000  1
  Pd  Pd0  1  0.50000000  0.50000000  0.00000000  1
