# generated using pymatgen
data_2826_BaW3
_symmetry_space_group_name_H-M   'Immm'
_cell_length_a   6.09784035
_cell_length_b   6.09784035
_cell_length_c   6.09784035
_cell_angle_alpha   151.78495434
_cell_angle_beta   125.53650182
_cell_angle_gamma   62.45786290
_chemical_formula_structural   BaW3
_chemical_formula_sum   'Ba1 W3'
_cell_volume   86.49968922
loop_
 _symmetry_equiv_pos_site_id
 _symmetry_equiv_pos_as_xyz
  1  'x, y, z'
loop_
 _atom_type_symbol
  Ba
  W
loop_
 _atom_site_type_symbol
 _atom_site_label
 _atom_site_symmetry_multiplicity
 _atom_site_fract_x
 _atom_site_fract_y
 _atom_site_fract_z
 _atom_site_occupancy
  Ba  Ba0  1  0.00000000  0.00000000  0.00000000  1
  W  W0  1  0.70927700  0.20927700  0.50000000  1
  W  W1  1  0.50000000  0.50000000  0.00000000  1
  W  W2  1  0.29072300  0.79072300  0.50000000  1
