# generated using pymatgen
data_2828_Ca5Ge24
_symmetry_space_group_name_H-M   'I-43m'
_cell_length_a   9.29625343
_cell_length_b   9.29625343
_cell_length_c   9.29625343
_cell_angle_alpha   109.47122063
_cell_angle_beta   109.47122063
_cell_angle_gamma   109.47122063
_chemical_formula_structural   Ca5Ge24
_chemical_formula_sum   'Ca5 Ge24'
_cell_volume   618.44626838
loop_
 _symmetry_equiv_pos_site_id
 _symmetry_equiv_pos_as_xyz
  1  'x, y, z'
loop_
 _atom_type_symbol
  Ca
  Ge
loop_
 _atom_site_type_symbol
 _atom_site_label
 _atom_site_symmetry_multiplicity
 _atom_site_fract_x
 _atom_site_fract_y
 _atom_site_fract_z
 _atom_site_occupancy
  Ca  Ca0  1  0.00000000  0.60590606  0.00000000  1
  Ca  Ca1  1  0.60590606  0.00000000  0.00000000  1
  Ca  Ca2  1  0.00000000  0.00000000  0.60590606  1
  Ca  Ca3  1  0.39409394  0.39409394  0.39409394  1
  Ca  Ca4  1  0.00000000  0.00000000  0.00000000  1
  Ge  Ge0  1  0.17683518  0.35439129  0.00000000  1
  Ge  Ge1  1  0.35439129  0.17683518  0.00000000  1
  Ge  Ge2  1  0.82316482  0.82316482  0.17755611  1
  Ge  Ge3  1  0.64560871  0.64560871  0.82244389  1
  Ge  Ge4  1  0.82316482  0.17755611  0.82316482  1
  Ge  Ge5  1  0.64560871  0.82244389  0.64560871  1
  Ge  Ge6  1  0.35439129  0.00000000  0.17683518  1
  Ge  Ge7  1  0.17683518  0.00000000  0.35439129  1
  Ge  Ge8  1  0.00000000  0.35439129  0.17683518  1
  Ge  Ge9  1  0.00000000  0.17683518  0.35439129  1
  Ge  Ge10  1  0.82244389  0.64560871  0.64560871  1
  Ge  Ge11  1  0.17755611  0.82316482  0.82316482  1
  Ge  Ge12  1  0.62980227  0.37228400  0.00000000  1
  Ge  Ge13  1  0.37228400  0.62980227  0.00000000  1
  Ge  Ge14  1  0.37019773  0.37019773  0.74248173  1
  Ge  Ge15  1  0.62771600  0.62771600  0.25751827  1
  Ge  Ge16  1  0.37019773  0.74248173  0.37019773  1
  Ge  Ge17  1  0.62771600  0.25751827  0.62771600  1
  Ge  Ge18  1  0.37228400  0.00000000  0.62980227  1
  Ge  Ge19  1  0.62980227  0.00000000  0.37228400  1
  Ge  Ge20  1  1.00000000  0.37228400  0.62980227  1
  Ge  Ge21  1  0.00000000  0.62980227  0.37228400  1
  Ge  Ge22  1  0.25751827  0.62771600  0.62771600  1
  Ge  Ge23  1  0.74248173  0.37019773  0.37019773  1
