# generated using pymatgen
data_2838_Nb4Sn8
_symmetry_space_group_name_H-M   'Fddd'
_cell_length_a   5.69578303
_cell_length_b   5.71623127
_cell_length_c   10.03554330
_cell_angle_alpha   98.12786377
_cell_angle_beta   106.48596714
_cell_angle_gamma   60.11826318
_chemical_formula_structural   Nb4Sn8
_chemical_formula_sum   'Nb4 Sn8'
_cell_volume   271.65613822
loop_
 _symmetry_equiv_pos_site_id
 _symmetry_equiv_pos_as_xyz
  1  'x, y, z'
loop_
 _atom_type_symbol
  Nb
  Sn
loop_
 _atom_site_type_symbol
 _atom_site_label
 _atom_site_symmetry_multiplicity
 _atom_site_fract_x
 _atom_site_fract_y
 _atom_site_fract_z
 _atom_site_occupancy
  Nb  Nb0  1  0.62318802  0.50000000  0.24637604  1
  Nb  Nb1  1  0.12681198  0.00000000  0.25362396  1
  Nb  Nb2  1  0.87318802  0.00000000  0.74637604  1
  Nb  Nb3  1  0.87681198  0.50000000  0.75362396  1
  Sn  Sn0  1  0.83098554  0.33802891  0.00000000  1
  Sn  Sn1  1  0.16901446  0.66197109  0.00000000  1
  Sn  Sn2  1  0.58234896  0.00000000  0.16469791  1
  Sn  Sn3  1  0.16765104  0.50000000  0.33530209  1
  Sn  Sn4  1  0.91901446  0.16197109  0.50000000  1
  Sn  Sn5  1  0.58098554  0.83802891  0.50000000  1
  Sn  Sn6  1  0.33234896  0.50000000  0.66469791  1
  Sn  Sn7  1  0.41765104  0.00000000  0.83530209  1
