# generated using pymatgen
data_2839_AcPd
_symmetry_space_group_name_H-M   'P-6m2'
_cell_length_a   3.72717040
_cell_length_b   3.72716937
_cell_length_c   4.43663744
_cell_angle_alpha   90.00000000
_cell_angle_beta   90.00000000
_cell_angle_gamma   120.00002125
_chemical_formula_structural   AcPd
_chemical_formula_sum   'Ac1 Pd1'
_cell_volume   53.37561045
loop_
 _symmetry_equiv_pos_site_id
 _symmetry_equiv_pos_as_xyz
  1  'x, y, z'
loop_
 _atom_type_symbol
  Ac
  Pd
loop_
 _atom_site_type_symbol
 _atom_site_label
 _atom_site_symmetry_multiplicity
 _atom_site_fract_x
 _atom_site_fract_y
 _atom_site_fract_z
 _atom_site_occupancy
  Ac  Ac0  1  0.66666750  0.33333401  0.75000000  1
  Pd  Pd0  1  0.33333250  0.66666599  0.25000000  1
