# generated using pymatgen
data_2845_Sr2W
_symmetry_space_group_name_H-M   'Fmmm'
_cell_length_a   6.67535760
_cell_length_b   6.41295440
_cell_length_c   2.38199276
_cell_angle_alpha   85.79631774
_cell_angle_beta   73.35667731
_cell_angle_gamma   20.84700495
_chemical_formula_structural   Sr2W
_chemical_formula_sum   'Sr2 W1'
_cell_volume   28.56641511
loop_
 _symmetry_equiv_pos_site_id
 _symmetry_equiv_pos_as_xyz
  1  'x, y, z'
loop_
 _atom_type_symbol
  Sr
  W
loop_
 _atom_site_type_symbol
 _atom_site_label
 _atom_site_symmetry_multiplicity
 _atom_site_fract_x
 _atom_site_fract_y
 _atom_site_fract_z
 _atom_site_occupancy
  Sr  Sr0  1  0.99984744  0.99984744  0.00015256  1
  Sr  Sr1  1  0.33348589  0.33348589  0.66651411  1
  W  W0  1  0.66666667  0.66666667  0.33333333  1
