# generated using pymatgen
data_2847_Ba2W2
_symmetry_space_group_name_H-M   'Imma'
_cell_length_a   6.73214297
_cell_length_b   6.73214297
_cell_length_c   6.73214297
_cell_angle_alpha   148.23849718
_cell_angle_beta   128.49185784
_cell_angle_gamma   61.79354958
_chemical_formula_structural   Ba2W2
_chemical_formula_sum   'Ba2 W2'
_cell_volume   124.51657972
loop_
 _symmetry_equiv_pos_site_id
 _symmetry_equiv_pos_as_xyz
  1  'x, y, z'
loop_
 _atom_type_symbol
  Ba
  W
loop_
 _atom_site_type_symbol
 _atom_site_label
 _atom_site_symmetry_multiplicity
 _atom_site_fract_x
 _atom_site_fract_y
 _atom_site_fract_z
 _atom_site_occupancy
  Ba  Ba0  1  0.02030309  0.02030309  0.00000000  1
  Ba  Ba1  1  0.72969691  0.22969691  0.50000000  1
  W  W0  1  0.44406622  0.44406622  0.00000000  1
  W  W1  1  0.30593378  0.80593378  0.50000000  1
