# generated using pymatgen
data_2851_AcBi
_symmetry_space_group_name_H-M   'P-6m2'
_cell_length_a   4.02282382
_cell_length_b   4.02283516
_cell_length_c   5.22261543
_cell_angle_alpha   90.00000000
_cell_angle_beta   90.00000000
_cell_angle_gamma   119.99990673
_chemical_formula_structural   AcBi
_chemical_formula_sum   'Ac1 Bi1'
_cell_volume   73.19515552
loop_
 _symmetry_equiv_pos_site_id
 _symmetry_equiv_pos_as_xyz
  1  'x, y, z'
loop_
 _atom_type_symbol
  Ac
  Bi
loop_
 _atom_site_type_symbol
 _atom_site_label
 _atom_site_symmetry_multiplicity
 _atom_site_fract_x
 _atom_site_fract_y
 _atom_site_fract_z
 _atom_site_occupancy
  Ac  Ac0  1  0.66666580  0.33333060  0.75000000  1
  Bi  Bi0  1  0.33333420  0.66666940  0.25000000  1
