# generated using pymatgen
data_2853_PtSb
_symmetry_space_group_name_H-M   'P4/mmm'
_cell_length_a   3.28939182
_cell_length_b   4.65190353
_cell_length_c   3.67827708
_cell_angle_alpha   90.00000000
_cell_angle_beta   90.00000000
_cell_angle_gamma   45.00000000
_chemical_formula_structural   PtSb
_chemical_formula_sum   'Pt1 Sb1'
_cell_volume   39.79932906
loop_
 _symmetry_equiv_pos_site_id
 _symmetry_equiv_pos_as_xyz
  1  'x, y, z'
loop_
 _atom_type_symbol
  Pt
  Sb
loop_
 _atom_site_type_symbol
 _atom_site_label
 _atom_site_symmetry_multiplicity
 _atom_site_fract_x
 _atom_site_fract_y
 _atom_site_fract_z
 _atom_site_occupancy
  Pt  Pt0  1  0.00000000  0.00000000  0.00000000  1
  Sb  Sb0  1  0.00000001  0.49999949  0.50000000  1
