# generated using pymatgen
data_2859_Ga2In2
_symmetry_space_group_name_H-M   'Pmma'
_cell_length_a   3.22801478
_cell_length_b   5.23480325
_cell_length_c   5.54952640
_cell_angle_alpha   90.00000000
_cell_angle_beta   90.00000000
_cell_angle_gamma   90.00000000
_chemical_formula_structural   Ga2In2
_chemical_formula_sum   'Ga2 In2'
_cell_volume   93.77602065
loop_
 _symmetry_equiv_pos_site_id
 _symmetry_equiv_pos_as_xyz
  1  'x, y, z'
loop_
 _atom_type_symbol
  Ga
  In
loop_
 _atom_site_type_symbol
 _atom_site_label
 _atom_site_symmetry_multiplicity
 _atom_site_fract_x
 _atom_site_fract_y
 _atom_site_fract_z
 _atom_site_occupancy
  Ga  Ga0  1  0.00000000  0.00000000  0.00332215  1
  Ga  Ga1  1  0.00000000  0.50000000  0.33001119  1
  In  In0  1  0.50000000  0.00000000  0.49249399  1
  In  In1  1  0.50000000  0.50000000  0.84083934  1
