# generated using pymatgen
data_285_MoPb3
_symmetry_space_group_name_H-M   'Immm'
_cell_length_a   7.46242926
_cell_length_b   7.46242926
_cell_length_c   7.46242926
_cell_angle_alpha   155.06499651
_cell_angle_beta   142.14224685
_cell_angle_gamma   45.86722811
_chemical_formula_structural   MoPb3
_chemical_formula_sum   'Mo1 Pb3'
_cell_volume   107.21047119
loop_
 _symmetry_equiv_pos_site_id
 _symmetry_equiv_pos_as_xyz
  1  'x, y, z'
loop_
 _atom_type_symbol
  Mo
  Pb
loop_
 _atom_site_type_symbol
 _atom_site_label
 _atom_site_symmetry_multiplicity
 _atom_site_fract_x
 _atom_site_fract_y
 _atom_site_fract_z
 _atom_site_occupancy
  Mo  Mo0  1  0.00000000  0.00000000  0.00000000  1
  Pb  Pb0  1  0.81237746  0.31237746  0.50000000  1
  Pb  Pb1  1  0.50000000  0.50000000  0.00000000  1
  Pb  Pb2  1  0.18762254  0.68762254  0.50000000  1
