# generated using pymatgen
data_2860_V3Br
_symmetry_space_group_name_H-M   'Cmmm'
_cell_length_a   2.95285184
_cell_length_b   2.95285184
_cell_length_c   7.96587563
_cell_angle_alpha   90.00000000
_cell_angle_beta   90.00000000
_cell_angle_gamma   115.76304435
_chemical_formula_structural   V3Br
_chemical_formula_sum   'Br1 V3'
_cell_volume   62.55304338
loop_
 _symmetry_equiv_pos_site_id
 _symmetry_equiv_pos_as_xyz
  1  'x, y, z'
loop_
 _atom_type_symbol
  Br
  V
loop_
 _atom_site_type_symbol
 _atom_site_label
 _atom_site_symmetry_multiplicity
 _atom_site_fract_x
 _atom_site_fract_y
 _atom_site_fract_z
 _atom_site_occupancy
  Br  Br0  1  0.00000000  0.00000000  0.00000000  1
  V  V0  1  0.50000000  0.50000000  0.73055391  1
  V  V1  1  0.00000000  0.00000000  0.50000000  1
  V  V2  1  0.50000000  0.50000000  0.26944609  1
