# generated using pymatgen
data_2861_Nb5W4
_symmetry_space_group_name_H-M   'I4/mmm'
_cell_length_a   3.23429375
_cell_length_b   7.08572130
_cell_length_c   7.08572130
_cell_angle_alpha   92.98572636
_cell_angle_beta   103.19266006
_cell_angle_gamma   76.80733994
_chemical_formula_structural   Nb5W4
_chemical_formula_sum   'Nb5 W4'
_cell_volume   153.92742135
loop_
 _symmetry_equiv_pos_site_id
 _symmetry_equiv_pos_as_xyz
  1  'x, y, z'
loop_
 _atom_type_symbol
  Nb
  W
loop_
 _atom_site_type_symbol
 _atom_site_label
 _atom_site_symmetry_multiplicity
 _atom_site_fract_x
 _atom_site_fract_y
 _atom_site_fract_z
 _atom_site_occupancy
  Nb  Nb0  1  0.00000000  0.00000000  0.00000000  1
  Nb  Nb1  1  0.33251144  0.00000000  0.66502288  1
  Nb  Nb2  1  0.66748856  1.00000000  0.33497712  1
  Nb  Nb3  1  0.66748856  0.66502288  0.00000000  1
  Nb  Nb4  1  0.33251144  0.33497712  0.00000000  1
  W  W0  1  0.33830621  0.66169379  0.33830621  1
  W  W1  1  0.66169379  0.33830621  0.66169379  1
  W  W2  1  0.00000000  0.33830621  0.33830621  1
  W  W3  1  0.00000000  0.66169379  0.66169379  1
