# generated using pymatgen
data_2865_Pt2V4
_symmetry_space_group_name_H-M   'Cmcm'
_cell_length_a   3.89273811
_cell_length_b   6.33720300
_cell_length_c   3.62206478
_cell_angle_alpha   90.00000000
_cell_angle_beta   90.00000000
_cell_angle_gamma   72.11341722
_chemical_formula_structural   Pt2V4
_chemical_formula_sum   'Pt2 V4'
_cell_volume   85.03422037
loop_
 _symmetry_equiv_pos_site_id
 _symmetry_equiv_pos_as_xyz
  1  'x, y, z'
loop_
 _atom_type_symbol
  Pt
  V
loop_
 _atom_site_type_symbol
 _atom_site_label
 _atom_site_symmetry_multiplicity
 _atom_site_fract_x
 _atom_site_fract_y
 _atom_site_fract_z
 _atom_site_occupancy
  Pt  Pt0  1  0.91356141  0.17287718  0.25000000  1
  Pt  Pt1  1  0.08643859  0.82712282  0.75000000  1
  V  V0  1  0.57477932  0.85044135  0.25000000  1
  V  V1  1  0.42522068  0.14955865  0.75000000  1
  V  V2  1  0.25394343  0.49211314  0.25000000  1
  V  V3  1  0.74605657  0.50788686  0.75000000  1
