# generated using pymatgen
data_286_Ca3P5
_symmetry_space_group_name_H-M   'Cmmm'
_cell_length_a   6.14749835
_cell_length_b   6.14749835
_cell_length_c   4.27635710
_cell_angle_alpha   90.00000000
_cell_angle_beta   90.00000000
_cell_angle_gamma   100.27691179
_chemical_formula_structural   Ca3P5
_chemical_formula_sum   'Ca3 P5'
_cell_volume   159.01823518
loop_
 _symmetry_equiv_pos_site_id
 _symmetry_equiv_pos_as_xyz
  1  'x, y, z'
loop_
 _atom_type_symbol
  Ca
  P
loop_
 _atom_site_type_symbol
 _atom_site_label
 _atom_site_symmetry_multiplicity
 _atom_site_fract_x
 _atom_site_fract_y
 _atom_site_fract_z
 _atom_site_occupancy
  Ca  Ca0  1  0.50000000  0.50000000  0.00000000  1
  Ca  Ca1  1  0.77943089  0.22056911  0.50000000  1
  Ca  Ca2  1  0.22056911  0.77943089  0.50000000  1
  P  P0  1  0.00000000  0.00000000  0.00000000  1
  P  P1  1  0.00000000  0.50000000  0.00000000  1
  P  P2  1  0.50000000  1.00000000  0.00000000  1
  P  P3  1  0.24620839  0.24620839  0.50000000  1
  P  P4  1  0.75379161  0.75379161  0.50000000  1
