# generated using pymatgen
data_2876_K4P16
_symmetry_space_group_name_H-M   'I-43m'
_cell_length_a   8.40058072
_cell_length_b   8.40058072
_cell_length_c   8.40058072
_cell_angle_alpha   109.47122063
_cell_angle_beta   109.47122063
_cell_angle_gamma   109.47122063
_chemical_formula_structural   K4P16
_chemical_formula_sum   'K4 P16'
_cell_volume   456.35838757
loop_
 _symmetry_equiv_pos_site_id
 _symmetry_equiv_pos_as_xyz
  1  'x, y, z'
loop_
 _atom_type_symbol
  K
  P
loop_
 _atom_site_type_symbol
 _atom_site_label
 _atom_site_symmetry_multiplicity
 _atom_site_fract_x
 _atom_site_fract_y
 _atom_site_fract_z
 _atom_site_occupancy
  K  K0  1  0.45209760  0.45209760  0.45209760  1
  K  K1  1  0.54790240  0.00000000  0.00000000  1
  K  K2  1  1.00000000  0.54790240  0.00000000  1
  K  K3  1  1.00000000  0.00000000  0.54790240  1
  P  P0  1  0.83985050  0.83985050  0.83985050  1
  P  P1  1  0.16014950  0.00000000  0.00000000  1
  P  P2  1  1.00000000  0.16014950  0.00000000  1
  P  P3  1  1.00000000  0.00000000  0.16014950  1
  P  P4  1  0.60844592  0.60844592  0.00000000  1
  P  P5  1  0.39155408  0.39155408  0.00000000  1
  P  P6  1  0.60844592  0.00000000  0.60844592  1
  P  P7  1  0.39155408  0.00000000  0.39155408  1
  P  P8  1  1.00000000  0.60844592  0.60844592  1
  P  P9  1  1.00000000  0.39155408  0.39155408  1
  P  P10  1  0.24691535  0.74691535  0.50000000  1
  P  P11  1  0.75308465  0.25308465  0.50000000  1
  P  P12  1  0.74691535  0.50000000  0.24691535  1
  P  P13  1  0.25308465  0.50000000  0.75308465  1
  P  P14  1  0.50000000  0.24691535  0.74691535  1
  P  P15  1  0.50000000  0.75308465  0.25308465  1
