# generated using pymatgen
data_2885_Ag4Ba2
_symmetry_space_group_name_H-M   'Cmcm'
_cell_length_a   7.53917055
_cell_length_b   7.53917055
_cell_length_c   5.79217120
_cell_angle_alpha   90.00000000
_cell_angle_beta   90.00000000
_cell_angle_gamma   145.85486196
_chemical_formula_structural   Ag4Ba2
_chemical_formula_sum   'Ag4 Ba2'
_cell_volume   184.78926498
loop_
 _symmetry_equiv_pos_site_id
 _symmetry_equiv_pos_as_xyz
  1  'x, y, z'
loop_
 _atom_type_symbol
  Ag
  Ba
loop_
 _atom_site_type_symbol
 _atom_site_label
 _atom_site_symmetry_multiplicity
 _atom_site_fract_x
 _atom_site_fract_y
 _atom_site_fract_z
 _atom_site_occupancy
  Ag  Ag0  1  0.00709816  0.99290184  0.00000000  1
  Ag  Ag1  1  0.63271712  0.36728288  0.00000000  1
  Ag  Ag2  1  0.43734629  0.56265371  0.50000000  1
  Ag  Ag3  1  0.81172733  0.18827267  0.50000000  1
  Ba  Ba0  1  0.32491605  0.67508395  0.00000000  1
  Ba  Ba1  1  0.11952840  0.88047160  0.50000000  1
