# generated using pymatgen
data_2888_AgFe2
_symmetry_space_group_name_H-M   'Immm'
_cell_length_a   2.75999908
_cell_length_b   8.43837686
_cell_length_c   3.58372509
_cell_angle_alpha   90.00000000
_cell_angle_beta   90.00000000
_cell_angle_gamma   90.00000000
_chemical_formula_structural   AgFe2
_chemical_formula_sum   'Ag2 Fe4'
_cell_volume   83.46464331
loop_
 _symmetry_equiv_pos_site_id
 _symmetry_equiv_pos_as_xyz
  1  'x, y, z'
loop_
 _atom_type_symbol
  Ag
  Fe
loop_
 _atom_site_type_symbol
 _atom_site_label
 _atom_site_symmetry_multiplicity
 _atom_site_fract_x
 _atom_site_fract_y
 _atom_site_fract_z
 _atom_site_occupancy
  Ag  Ag0  1  0.00000000  0.00000000  0.00000000  1
  Ag  Ag1  1  0.50000000  0.50000000  0.50000000  1
  Fe  Fe0  1  0.00028983  0.31963507  0.00000000  1
  Fe  Fe1  1  0.49971017  0.81963507  0.50000000  1
  Fe  Fe2  1  0.50028983  0.18036493  0.50000000  1
  Fe  Fe3  1  0.99971017  0.68036493  0.00000000  1
