# generated using pymatgen
data_2890_Ag6Pt5
_symmetry_space_group_name_H-M   'P1'
_cell_length_a   4.93017297
_cell_length_b   7.63417543
_cell_length_c   4.96746396
_cell_angle_alpha   96.42790548
_cell_angle_beta   99.22732694
_cell_angle_gamma   90.35642078
_chemical_formula_structural   Ag6Pt5
_chemical_formula_sum   'Ag6 Pt5'
_cell_volume   183.32926458
loop_
 _symmetry_equiv_pos_site_id
 _symmetry_equiv_pos_as_xyz
  1  'x, y, z'
loop_
 _atom_type_symbol
  Ag
  Pt
loop_
 _atom_site_type_symbol
 _atom_site_label
 _atom_site_symmetry_multiplicity
 _atom_site_fract_x
 _atom_site_fract_y
 _atom_site_fract_z
 _atom_site_occupancy
  Ag  Ag0  1  0.99936546  0.99666042  0.99429451  1
  Ag  Ag1  1  0.54927967  0.08920136  0.26832324  1
  Ag  Ag2  1  0.09018637  0.18389449  0.54551518  1
  Ag  Ag3  1  0.63038351  0.27204995  0.81957705  1
  Ag  Ag4  1  0.18416037  0.36916930  0.09652944  1
  Ag  Ag5  1  0.81817815  0.63475774  0.91436848  1
  Pt  Pt0  1  0.72760508  0.45869717  0.37509014  1
  Pt  Pt1  1  0.26808247  0.55231609  0.63420693  1
  Pt  Pt2  1  0.37227547  0.73008439  0.18533653  1
  Pt  Pt3  1  0.91238046  0.81490203  0.45478422  1
  Pt  Pt4  1  0.44810299  0.89826706  0.71197428  1
