# generated using pymatgen
data_2896_Ni4Ta
_symmetry_space_group_name_H-M   'Im -3 m'
_cell_length_a   4.71192902
_cell_length_b   4.71192902
_cell_length_c   4.71192902
_cell_angle_alpha   109.47122063
_cell_angle_beta   109.47122063
_cell_angle_gamma   109.47122063
_chemical_formula_structural   Ni4Ta
_chemical_formula_sum   'Ni4 Ta1'
_cell_volume   80.53308372
loop_
 _symmetry_equiv_pos_site_id
 _symmetry_equiv_pos_as_xyz
  1  'x, y, z'
loop_
 _atom_type_symbol
  Ni
  Ta
loop_
 _atom_site_type_symbol
 _atom_site_label
 _atom_site_symmetry_multiplicity
 _atom_site_fract_x
 _atom_site_fract_y
 _atom_site_fract_z
 _atom_site_occupancy
  Ni  Ni0  1  0.00000000  0.50000000  0.00000000  1
  Ni  Ni1  1  0.50000000  0.50000000  0.50000000  1
  Ni  Ni2  1  0.00000000  0.00000000  0.50000000  1
  Ni  Ni3  1  0.50000000  0.00000000  0.00000000  1
  Ta  Ta0  1  0.00000000  0.00000000  0.00000000  1
