# generated using pymatgen
data_2905_AuCu
_symmetry_space_group_name_H-M   'R -3 m'
_cell_length_a   4.60785117
_cell_length_b   4.60785117
_cell_length_c   4.60785115
_cell_angle_alpha   36.20107844
_cell_angle_beta   36.20107844
_cell_angle_gamma   36.20107929
_chemical_formula_structural   AuCu
_chemical_formula_sum   'Au1 Cu1'
_cell_volume   30.53594044
loop_
 _symmetry_equiv_pos_site_id
 _symmetry_equiv_pos_as_xyz
  1  'x, y, z'
loop_
 _atom_type_symbol
  Au
  Cu
loop_
 _atom_site_type_symbol
 _atom_site_label
 _atom_site_symmetry_multiplicity
 _atom_site_fract_x
 _atom_site_fract_y
 _atom_site_fract_z
 _atom_site_occupancy
  Au  Au0  1  0.00000000  0.00000000  0.00000000  1
  Cu  Cu0  1  0.50000014  0.50000014  0.49999983  1
