# generated using pymatgen
data_2908_Pd2W2
_symmetry_space_group_name_H-M   'Cmcm'
_cell_length_a   2.67930839
_cell_length_b   4.34131497
_cell_length_c   5.50961588
_cell_angle_alpha   90.00000000
_cell_angle_beta   104.07243538
_cell_angle_gamma   90.00000000
_chemical_formula_structural   Pd2W2
_chemical_formula_sum   'Pd2 W2'
_cell_volume   62.16303033
loop_
 _symmetry_equiv_pos_site_id
 _symmetry_equiv_pos_as_xyz
  1  'x, y, z'
loop_
 _atom_type_symbol
  Pd
  W
loop_
 _atom_site_type_symbol
 _atom_site_label
 _atom_site_symmetry_multiplicity
 _atom_site_fract_x
 _atom_site_fract_y
 _atom_site_fract_z
 _atom_site_occupancy
  Pd  Pd0  1  0.93137093  0.25000000  0.86274186  1
  Pd  Pd1  1  0.06862907  0.75000000  0.13725814  1
  W  W0  1  0.67585517  0.25000000  0.35171035  1
  W  W1  1  0.32414483  0.75000000  0.64828965  1
