# generated using pymatgen
data_2911_VBr5
_symmetry_space_group_name_H-M   'Cmmm'
_cell_length_a   7.05234856
_cell_length_b   7.05234856
_cell_length_c   7.47320816
_cell_angle_alpha   90.00000000
_cell_angle_beta   90.00000000
_cell_angle_gamma   149.62656604
_chemical_formula_structural   VBr5
_chemical_formula_sum   'Br5 V1'
_cell_volume   187.93631545
loop_
 _symmetry_equiv_pos_site_id
 _symmetry_equiv_pos_as_xyz
  1  'x, y, z'
loop_
 _atom_type_symbol
  Br
  V
loop_
 _atom_site_type_symbol
 _atom_site_label
 _atom_site_symmetry_multiplicity
 _atom_site_fract_x
 _atom_site_fract_y
 _atom_site_fract_z
 _atom_site_occupancy
  Br  Br0  1  0.80476933  0.19523067  0.50000000  1
  Br  Br1  1  0.59747891  0.40252109  0.00000000  1
  Br  Br2  1  0.47220860  0.52779140  0.50000000  1
  Br  Br3  1  0.34708406  0.65291594  0.00000000  1
  Br  Br4  1  0.13964597  0.86035403  0.50000000  1
  V  V0  1  0.97214646  0.02785354  0.00000000  1
