# generated using pymatgen
data_2915_Ce2Br6
_symmetry_space_group_name_H-M   'P6_3/m'
_cell_length_a   7.99703130
_cell_length_b   7.99700146
_cell_length_c   4.47946008
_cell_angle_alpha   90.00000000
_cell_angle_beta   90.00000000
_cell_angle_gamma   119.99495981
_chemical_formula_structural   Ce2Br6
_chemical_formula_sum   'Br6 Ce2'
_cell_volume   248.10432116
loop_
 _symmetry_equiv_pos_site_id
 _symmetry_equiv_pos_as_xyz
  1  'x, y, z'
loop_
 _atom_type_symbol
  Br
  Ce
loop_
 _atom_site_type_symbol
 _atom_site_label
 _atom_site_symmetry_multiplicity
 _atom_site_fract_x
 _atom_site_fract_y
 _atom_site_fract_z
 _atom_site_occupancy
  Br  Br0  1  0.70192384  0.08585022  0.25000000  1
  Br  Br1  1  0.38392324  0.29807126  0.25000000  1
  Br  Br2  1  0.91415370  0.61608186  0.25000000  1
  Br  Br3  1  0.08584630  0.38391814  0.75000000  1
  Br  Br4  1  0.61607676  0.70192874  0.75000000  1
  Br  Br5  1  0.29807616  0.91414978  0.75000000  1
  Ce  Ce0  1  0.33336742  0.66668349  0.25000000  1
  Ce  Ce1  1  0.66663258  0.33331651  0.75000000  1
