# generated using pymatgen
data_2916_MoRh2
_symmetry_space_group_name_H-M   'I4/mmm'
_cell_length_a   4.82081146
_cell_length_b   4.82081146
_cell_length_c   4.82081146
_cell_angle_alpha   140.45111576
_cell_angle_beta   140.45111576
_cell_angle_gamma   57.16898012
_chemical_formula_structural   MoRh2
_chemical_formula_sum   'Mo1 Rh2'
_cell_volume   45.04237648
loop_
 _symmetry_equiv_pos_site_id
 _symmetry_equiv_pos_as_xyz
  1  'x, y, z'
loop_
 _atom_type_symbol
  Mo
  Rh
loop_
 _atom_site_type_symbol
 _atom_site_label
 _atom_site_symmetry_multiplicity
 _atom_site_fract_x
 _atom_site_fract_y
 _atom_site_fract_z
 _atom_site_occupancy
  Mo  Mo0  1  0.00000000  0.00000000  0.00000000  1
  Rh  Rh0  1  0.34040507  0.34040507  0.00000000  1
  Rh  Rh1  1  0.65959493  0.65959493  0.00000000  1
