# generated using pymatgen
data_2921_Pb2V2
_symmetry_space_group_name_H-M   'Imma'
_cell_length_a   6.45506310
_cell_length_b   6.45506310
_cell_length_c   6.45506310
_cell_angle_alpha   152.16567545
_cell_angle_beta   136.76042722
_cell_angle_gamma   52.20797478
_chemical_formula_structural   Pb2V2
_chemical_formula_sum   'Pb2 V2'
_cell_volume   85.61675289
loop_
 _symmetry_equiv_pos_site_id
 _symmetry_equiv_pos_as_xyz
  1  'x, y, z'
loop_
 _atom_type_symbol
  Pb
  V
loop_
 _atom_site_type_symbol
 _atom_site_label
 _atom_site_symmetry_multiplicity
 _atom_site_fract_x
 _atom_site_fract_y
 _atom_site_fract_z
 _atom_site_occupancy
  Pb  Pb0  1  0.01196558  0.01196558  1.00000000  1
  Pb  Pb1  1  0.73803442  0.23803442  0.50000000  1
  V  V0  1  0.45408344  0.45408344  1.00000000  1
  V  V1  1  0.29591656  0.79591656  0.50000000  1
