# generated using pymatgen
data_292_Ga14Pt6
_symmetry_space_group_name_H-M   'Im -3 m'
_cell_length_a   7.69906472
_cell_length_b   7.69906472
_cell_length_c   7.69906472
_cell_angle_alpha   109.47122063
_cell_angle_beta   109.47122063
_cell_angle_gamma   109.47122063
_chemical_formula_structural   Ga14Pt6
_chemical_formula_sum   'Ga14 Pt6'
_cell_volume   351.31122050
loop_
 _symmetry_equiv_pos_site_id
 _symmetry_equiv_pos_as_xyz
  1  'x, y, z'
loop_
 _atom_type_symbol
  Ga
  Pt
loop_
 _atom_site_type_symbol
 _atom_site_label
 _atom_site_symmetry_multiplicity
 _atom_site_fract_x
 _atom_site_fract_y
 _atom_site_fract_z
 _atom_site_occupancy
  Ga  Ga0  1  0.25000000  0.50000000  0.75000000  1
  Ga  Ga1  1  0.75000000  0.50000000  0.25000000  1
  Ga  Ga2  1  0.50000000  0.25000000  0.75000000  1
  Ga  Ga3  1  0.50000000  0.75000000  0.25000000  1
  Ga  Ga4  1  0.25000000  0.75000000  0.50000000  1
  Ga  Ga5  1  0.75000000  0.25000000  0.50000000  1
  Ga  Ga6  1  0.00000000  0.32947326  0.00000000  1
  Ga  Ga7  1  0.32947326  0.00000000  0.00000000  1
  Ga  Ga8  1  0.00000000  0.00000000  0.32947326  1
  Ga  Ga9  1  0.67052674  0.67052674  0.67052674  1
  Ga  Ga10  1  0.67052674  0.00000000  0.00000000  1
  Ga  Ga11  1  1.00000000  0.67052674  0.00000000  1
  Ga  Ga12  1  1.00000000  0.00000000  0.67052674  1
  Ga  Ga13  1  0.32947326  0.32947326  0.32947326  1
  Pt  Pt0  1  0.65962102  0.00000000  0.65962102  1
  Pt  Pt1  1  0.34037898  0.00000000  0.34037898  1
  Pt  Pt2  1  0.00000000  0.34037898  0.34037898  1
  Pt  Pt3  1  1.00000000  0.65962102  0.65962102  1
  Pt  Pt4  1  0.34037898  0.34037898  0.00000000  1
  Pt  Pt5  1  0.65962102  0.65962102  0.00000000  1
