# generated using pymatgen
data_2935_Fe6Pd4
_symmetry_space_group_name_H-M   'Fdd2'
_cell_length_a   5.06467601
_cell_length_b   5.06467601
_cell_length_c   6.84659099
_cell_angle_alpha   80.59738653
_cell_angle_beta   80.59738653
_cell_angle_gamma   123.93830002
_chemical_formula_structural   Fe6Pd4
_chemical_formula_sum   'Fe6 Pd4'
_cell_volume   136.61492054
loop_
 _symmetry_equiv_pos_site_id
 _symmetry_equiv_pos_as_xyz
  1  'x, y, z'
loop_
 _atom_type_symbol
  Fe
  Pd
loop_
 _atom_site_type_symbol
 _atom_site_label
 _atom_site_symmetry_multiplicity
 _atom_site_fract_x
 _atom_site_fract_y
 _atom_site_fract_z
 _atom_site_occupancy
  Fe  Fe0  1  0.65956868  0.74492037  0.79978146  1
  Fe  Fe1  1  0.54470184  0.45935015  0.20021854  1
  Fe  Fe2  1  0.20935015  0.79470184  0.70021854  1
  Fe  Fe3  1  0.49492037  0.90956868  0.29978146  1
  Fe  Fe4  1  0.04232323  0.04232323  0.00000000  1
  Fe  Fe5  1  0.79232323  0.29232323  0.50000000  1
  Pd  Pd0  1  0.64552274  0.21128862  0.89659490  1
  Pd  Pd1  1  0.10788351  0.54211764  0.10340510  1
  Pd  Pd2  1  0.29211764  0.35788351  0.60340510  1
  Pd  Pd3  1  0.96128862  0.89552274  0.39659490  1
