# generated using pymatgen
data_293_Mo4Pb2
_symmetry_space_group_name_H-M   'Cmcm'
_cell_length_a   7.16117776
_cell_length_b   7.16117776
_cell_length_c   4.77720852
_cell_angle_alpha   90.00000000
_cell_angle_beta   90.00000000
_cell_angle_gamma   152.73550951
_chemical_formula_structural   Mo4Pb2
_chemical_formula_sum   'Mo4 Pb2'
_cell_volume   112.22825319
loop_
 _symmetry_equiv_pos_site_id
 _symmetry_equiv_pos_as_xyz
  1  'x, y, z'
loop_
 _atom_type_symbol
  Mo
  Pb
loop_
 _atom_site_type_symbol
 _atom_site_label
 _atom_site_symmetry_multiplicity
 _atom_site_fract_x
 _atom_site_fract_y
 _atom_site_fract_z
 _atom_site_occupancy
  Mo  Mo0  1  0.99221499  0.00778501  0.00000000  1
  Mo  Mo1  1  0.63379775  0.36620225  0.00000000  1
  Mo  Mo2  1  0.45222945  0.54777055  0.50000000  1
  Mo  Mo3  1  0.81064670  0.18935330  0.50000000  1
  Pb  Pb0  1  0.31439110  0.68560890  0.00000000  1
  Pb  Pb1  1  0.13005335  0.86994665  0.50000000  1
