# generated using pymatgen
data_2943_Mo16V4
_symmetry_space_group_name_H-M   'I-43m'
_cell_length_a   7.62643084
_cell_length_b   7.62643084
_cell_length_c   7.62643084
_cell_angle_alpha   109.47122063
_cell_angle_beta   109.47122063
_cell_angle_gamma   109.47122063
_chemical_formula_structural   Mo16V4
_chemical_formula_sum   'Mo16 V4'
_cell_volume   341.46179453
loop_
 _symmetry_equiv_pos_site_id
 _symmetry_equiv_pos_as_xyz
  1  'x, y, z'
loop_
 _atom_type_symbol
  Mo
  V
loop_
 _atom_site_type_symbol
 _atom_site_label
 _atom_site_symmetry_multiplicity
 _atom_site_fract_x
 _atom_site_fract_y
 _atom_site_fract_z
 _atom_site_occupancy
  Mo  Mo0  1  0.35482197  0.00000000  0.00000000  1
  Mo  Mo1  1  0.64517803  0.64517803  0.64517803  1
  Mo  Mo2  1  0.00000000  1.00000000  0.35482197  1
  Mo  Mo3  1  0.00000000  0.35482197  0.00000000  1
  Mo  Mo4  1  0.33074583  0.33074583  0.00000000  1
  Mo  Mo5  1  0.66925417  0.66925417  0.00000000  1
  Mo  Mo6  1  0.33074583  1.00000000  0.33074583  1
  Mo  Mo7  1  0.66925417  1.00000000  0.66925417  1
  Mo  Mo8  1  0.00000000  0.66925417  0.66925417  1
  Mo  Mo9  1  0.00000000  0.33074583  0.33074583  1
  Mo  Mo10  1  0.74995463  0.24995463  0.50000000  1
  Mo  Mo11  1  0.25004537  0.75004537  0.50000000  1
  Mo  Mo12  1  0.24995463  0.50000000  0.74995463  1
  Mo  Mo13  1  0.75004537  0.50000000  0.25004537  1
  Mo  Mo14  1  0.50000000  0.25004537  0.75004537  1
  Mo  Mo15  1  0.50000000  0.74995463  0.24995463  1
  V  V0  1  0.66714617  0.00000000  0.00000000  1
  V  V1  1  0.33285383  0.33285383  0.33285383  1
  V  V2  1  1.00000000  1.00000000  0.66714617  1
  V  V3  1  0.00000000  0.66714617  0.00000000  1
