# generated using pymatgen
data_2945_Ir2Ni4
_symmetry_space_group_name_H-M   'Cmcm'
_cell_length_a   2.65408197
_cell_length_b   6.70120258
_cell_length_c   4.23855795
_cell_angle_alpha   90.00000000
_cell_angle_beta   90.00000000
_cell_angle_gamma   78.57820162
_chemical_formula_structural   Ir2Ni4
_chemical_formula_sum   'Ir2 Ni4'
_cell_volume   73.89211327
loop_
 _symmetry_equiv_pos_site_id
 _symmetry_equiv_pos_as_xyz
  1  'x, y, z'
loop_
 _atom_type_symbol
  Ir
  Ni
loop_
 _atom_site_type_symbol
 _atom_site_label
 _atom_site_symmetry_multiplicity
 _atom_site_fract_x
 _atom_site_fract_y
 _atom_site_fract_z
 _atom_site_occupancy
  Ir  Ir0  1  0.99574142  0.00851716  0.00000000  1
  Ir  Ir1  1  0.55981413  0.88037173  0.50000000  1
  Ni  Ni0  1  0.67185763  0.65628474  0.00000000  1
  Ni  Ni1  1  0.33043594  0.33912813  0.00000000  1
  Ni  Ni2  1  0.22511962  0.54976076  0.50000000  1
  Ni  Ni3  1  0.88369793  0.23260415  0.50000000  1
