# generated using pymatgen
data_2949_Al4Cu8
_symmetry_space_group_name_H-M   'Pnma'
_cell_length_a   3.75375355
_cell_length_b   5.20461436
_cell_length_c   7.80288008
_cell_angle_alpha   90.00000000
_cell_angle_beta   90.00000000
_cell_angle_gamma   90.00000000
_chemical_formula_structural   Al4Cu8
_chemical_formula_sum   'Al4 Cu8'
_cell_volume   152.44361678
loop_
 _symmetry_equiv_pos_site_id
 _symmetry_equiv_pos_as_xyz
  1  'x, y, z'
loop_
 _atom_type_symbol
  Al
  Cu
loop_
 _atom_site_type_symbol
 _atom_site_label
 _atom_site_symmetry_multiplicity
 _atom_site_fract_x
 _atom_site_fract_y
 _atom_site_fract_z
 _atom_site_occupancy
  Al  Al0  1  0.25000000  0.64275831  0.40741587  1
  Al  Al1  1  0.75000000  0.85724169  0.90741587  1
  Al  Al2  1  0.25000000  0.14275831  0.09258413  1
  Al  Al3  1  0.75000000  0.35724169  0.59258413  1
  Cu  Cu0  1  0.25000000  0.11168463  0.75590867  1
  Cu  Cu1  1  0.75000000  0.38831537  0.25590867  1
  Cu  Cu2  1  0.25000000  0.61168463  0.74409133  1
  Cu  Cu3  1  0.75000000  0.88831537  0.24409133  1
  Cu  Cu4  1  0.25000000  0.13605819  0.42164326  1
  Cu  Cu5  1  0.75000000  0.36394181  0.92164326  1
  Cu  Cu6  1  0.25000000  0.63605819  0.07835674  1
  Cu  Cu7  1  0.75000000  0.86394181  0.57835674  1
