# generated using pymatgen
data_294_RhU
_symmetry_space_group_name_H-M   'P4/mmm'
_cell_length_a   2.99166980
_cell_length_b   4.23086100
_cell_length_c   4.12814100
_cell_angle_alpha   90.00000000
_cell_angle_beta   90.00000000
_cell_angle_gamma   45.00000000
_chemical_formula_structural   RhU
_chemical_formula_sum   'Rh1 U1'
_cell_volume   36.94723466
loop_
 _symmetry_equiv_pos_site_id
 _symmetry_equiv_pos_as_xyz
  1  'x, y, z'
loop_
 _atom_type_symbol
  Rh
  U
loop_
 _atom_site_type_symbol
 _atom_site_label
 _atom_site_symmetry_multiplicity
 _atom_site_fract_x
 _atom_site_fract_y
 _atom_site_fract_z
 _atom_site_occupancy
  Rh  Rh0  1  0.00000000  0.00000000  0.00000000  1
  U  U0  1  0.00000000  0.49999991  0.49999990  1
