# generated using pymatgen
data_2950_Ca6Ta2
_symmetry_space_group_name_H-M   'I4/mmm'
_cell_length_a   10.59570449
_cell_length_b   10.59570449
_cell_length_c   10.59570449
_cell_angle_alpha   152.59601452
_cell_angle_beta   152.59601452
_cell_angle_gamma   39.14355625
_chemical_formula_structural   Ca6Ta2
_chemical_formula_sum   'Ca6 Ta2'
_cell_volume   251.55342097
loop_
 _symmetry_equiv_pos_site_id
 _symmetry_equiv_pos_as_xyz
  1  'x, y, z'
loop_
 _atom_type_symbol
  Ca
  Ta
loop_
 _atom_site_type_symbol
 _atom_site_label
 _atom_site_symmetry_multiplicity
 _atom_site_fract_x
 _atom_site_fract_y
 _atom_site_fract_z
 _atom_site_occupancy
  Ca  Ca0  1  0.50000000  0.00000000  0.50000000  1
  Ca  Ca1  1  0.00000000  0.50000000  0.50000000  1
  Ca  Ca2  1  0.25000000  0.75000000  0.50000000  1
  Ca  Ca3  1  0.75000000  0.25000000  0.50000000  1
  Ca  Ca4  1  0.87425456  0.87425456  0.00000000  1
  Ca  Ca5  1  0.12574544  0.12574544  0.00000000  1
  Ta  Ta0  1  0.62521795  0.62521795  0.00000000  1
  Ta  Ta1  1  0.37478205  0.37478205  0.00000000  1
