# generated using pymatgen
data_2954_Mo2P2
_symmetry_space_group_name_H-M   'I4_1/amd'
_cell_length_a   4.65375334
_cell_length_b   4.65375334
_cell_length_c   4.65375334
_cell_angle_alpha   130.09082843
_cell_angle_beta   130.09082843
_cell_angle_gamma   73.26160236
_chemical_formula_structural   Mo2P2
_chemical_formula_sum   'Mo2 P2'
_cell_volume   57.58799680
loop_
 _symmetry_equiv_pos_site_id
 _symmetry_equiv_pos_as_xyz
  1  'x, y, z'
loop_
 _atom_type_symbol
  Mo
  P
loop_
 _atom_site_type_symbol
 _atom_site_label
 _atom_site_symmetry_multiplicity
 _atom_site_fract_x
 _atom_site_fract_y
 _atom_site_fract_z
 _atom_site_occupancy
  Mo  Mo0  1  0.00000000  0.00000000  0.00000000  1
  Mo  Mo1  1  0.25000000  0.75000000  0.50000000  1
  P  P0  1  0.50000000  0.50000000  0.00000000  1
  P  P1  1  0.75000000  0.25000000  0.50000000  1
