# generated using pymatgen
data_2957_Sm3W
_symmetry_space_group_name_H-M   'I4/mmm'
_cell_length_a   5.58030832
_cell_length_b   5.58030832
_cell_length_c   5.58030832
_cell_angle_alpha   128.08431779
_cell_angle_beta   128.08431779
_cell_angle_gamma   76.48847644
_chemical_formula_structural   Sm3W
_chemical_formula_sum   'Sm3 W1'
_cell_volume   104.58906405
loop_
 _symmetry_equiv_pos_site_id
 _symmetry_equiv_pos_as_xyz
  1  'x, y, z'
loop_
 _atom_type_symbol
  Sm
  W
loop_
 _atom_site_type_symbol
 _atom_site_label
 _atom_site_symmetry_multiplicity
 _atom_site_fract_x
 _atom_site_fract_y
 _atom_site_fract_z
 _atom_site_occupancy
  Sm  Sm0  1  0.50000022  0.50000022  0.00000000  1
  Sm  Sm1  1  0.75000109  0.25000011  0.50000098  1
  Sm  Sm2  1  0.25000011  0.75000109  0.50000098  1
  W  W0  1  0.00000000  0.00000000  0.00000000  1
