# generated using pymatgen
data_2963_AuSb
_symmetry_space_group_name_H-M   'Fm -3 m'
_cell_length_a   5.75133473
_cell_length_b   5.75133473
_cell_length_c   5.75133473
_cell_angle_alpha   90.00000000
_cell_angle_beta   90.00000000
_cell_angle_gamma   90.00000000
_chemical_formula_structural   AuSb
_chemical_formula_sum   'Au4 Sb4'
_cell_volume   190.24179427
loop_
 _symmetry_equiv_pos_site_id
 _symmetry_equiv_pos_as_xyz
  1  'x, y, z'
loop_
 _atom_type_symbol
  Au
  Sb
loop_
 _atom_site_type_symbol
 _atom_site_label
 _atom_site_symmetry_multiplicity
 _atom_site_fract_x
 _atom_site_fract_y
 _atom_site_fract_z
 _atom_site_occupancy
  Au  Au0  1  0.49977670  0.49977670  0.50022330  1
  Au  Au1  1  0.00022330  0.50022330  0.00022330  1
  Au  Au2  1  0.50022330  0.99977670  0.99977670  1
  Au  Au3  1  0.99977670  0.00022330  0.49977670  1
  Sb  Sb0  1  0.00022974  0.00022974  0.99977026  1
  Sb  Sb1  1  0.49977026  0.99977026  0.49977026  1
  Sb  Sb2  1  0.99977026  0.50022974  0.50022974  1
  Sb  Sb3  1  0.50022974  0.49977026  0.00022974  1
