# generated using pymatgen
data_2964_GaPd
_symmetry_space_group_name_H-M   'Pm -3 m'
_cell_length_a   3.10642100
_cell_length_b   3.10642100
_cell_length_c   3.10642100
_cell_angle_alpha   90.00000000
_cell_angle_beta   90.00000000
_cell_angle_gamma   90.00000000
_chemical_formula_structural   GaPd
_chemical_formula_sum   'Ga1 Pd1'
_cell_volume   29.97650113
loop_
 _symmetry_equiv_pos_site_id
 _symmetry_equiv_pos_as_xyz
  1  'x, y, z'
loop_
 _atom_type_symbol
  Ga
  Pd
loop_
 _atom_site_type_symbol
 _atom_site_label
 _atom_site_symmetry_multiplicity
 _atom_site_fract_x
 _atom_site_fract_y
 _atom_site_fract_z
 _atom_site_occupancy
  Ga  Ga0  1  0.00000000  0.00000000  0.00000000  1
  Pd  Pd0  1  0.49999978  0.49999978  0.49999978  1
