# generated using pymatgen
data_2965_Ni2P4
_symmetry_space_group_name_H-M   'Cmcm'
_cell_length_a   9.45019901
_cell_length_b   9.45019901
_cell_length_c   2.85883062
_cell_angle_alpha   90.00000000
_cell_angle_beta   90.00000000
_cell_angle_gamma   161.34171723
_chemical_formula_structural   Ni2P4
_chemical_formula_sum   'Ni2 P4'
_cell_volume   81.68007387
loop_
 _symmetry_equiv_pos_site_id
 _symmetry_equiv_pos_as_xyz
  1  'x, y, z'
loop_
 _atom_type_symbol
  Ni
  P
loop_
 _atom_site_type_symbol
 _atom_site_label
 _atom_site_symmetry_multiplicity
 _atom_site_fract_x
 _atom_site_fract_y
 _atom_site_fract_z
 _atom_site_occupancy
  Ni  Ni0  1  0.11424592  0.88575408  0.25000000  1
  Ni  Ni1  1  0.88575408  0.11424592  0.75000000  1
  P  P0  1  0.44407674  0.55592326  0.25000000  1
  P  P1  1  0.55592326  0.44407674  0.75000000  1
  P  P2  1  0.78102017  0.21897983  0.25000000  1
  P  P3  1  0.21897983  0.78102017  0.75000000  1
