# generated using pymatgen
data_2967_V2W2
_symmetry_space_group_name_H-M   'Cmcm'
_cell_length_a   2.90993707
_cell_length_b   5.03314857
_cell_length_c   4.41969849
_cell_angle_alpha   90.00000000
_cell_angle_beta   90.00000000
_cell_angle_gamma   106.80271792
_chemical_formula_structural   V2W2
_chemical_formula_sum   'V2 W2'
_cell_volume   61.96788509
loop_
 _symmetry_equiv_pos_site_id
 _symmetry_equiv_pos_as_xyz
  1  'x, y, z'
loop_
 _atom_type_symbol
  V
  W
loop_
 _atom_site_type_symbol
 _atom_site_label
 _atom_site_symmetry_multiplicity
 _atom_site_fract_x
 _atom_site_fract_y
 _atom_site_fract_z
 _atom_site_occupancy
  V  V0  1  0.14064058  0.28128115  0.25000000  1
  V  V1  1  0.85935942  0.71871885  0.75000000  1
  W  W0  1  0.40523038  0.81046077  0.25000000  1
  W  W1  1  0.59476962  0.18953923  0.75000000  1
