# generated using pymatgen
data_2968_Fe2Pt2
_symmetry_space_group_name_H-M   'Cmcm'
_cell_length_a   2.72271717
_cell_length_b   5.12417022
_cell_length_c   4.33900914
_cell_angle_alpha   90.00000000
_cell_angle_beta   90.00000000
_cell_angle_gamma   74.59299659
_chemical_formula_structural   Fe2Pt2
_chemical_formula_sum   'Fe2 Pt2'
_cell_volume   58.36090663
loop_
 _symmetry_equiv_pos_site_id
 _symmetry_equiv_pos_as_xyz
  1  'x, y, z'
loop_
 _atom_type_symbol
  Fe
  Pt
loop_
 _atom_site_type_symbol
 _atom_site_label
 _atom_site_symmetry_multiplicity
 _atom_site_fract_x
 _atom_site_fract_y
 _atom_site_fract_z
 _atom_site_occupancy
  Fe  Fe0  1  0.84438556  0.31122888  0.25000000  1
  Fe  Fe1  1  0.15561444  0.68877112  0.75000000  1
  Pt  Pt0  1  0.58896231  0.82207538  0.25000000  1
  Pt  Pt1  1  0.41103769  0.17792462  0.75000000  1
