# generated using pymatgen
data_2969_Au3Nb3
_symmetry_space_group_name_H-M   'Cm'
_cell_length_a   5.66756100
_cell_length_b   5.66756100
_cell_length_c   11.43146923
_cell_angle_alpha   140.14748737
_cell_angle_beta   140.14748737
_cell_angle_gamma   28.77339634
_chemical_formula_structural   Au3Nb3
_chemical_formula_sum   'Au3 Nb3'
_cell_volume   107.78160560
loop_
 _symmetry_equiv_pos_site_id
 _symmetry_equiv_pos_as_xyz
  1  'x, y, z'
loop_
 _atom_type_symbol
  Au
  Nb
loop_
 _atom_site_type_symbol
 _atom_site_label
 _atom_site_symmetry_multiplicity
 _atom_site_fract_x
 _atom_site_fract_y
 _atom_site_fract_z
 _atom_site_occupancy
  Au  Au0  1  0.01265201  0.01265201  0.01553968  1
  Au  Au1  1  0.11071150  0.11071150  0.71952656  1
  Au  Au2  1  0.32473233  0.32473233  0.66068667  1
  Nb  Nb0  1  0.44190939  0.44190939  0.37922155  1
  Nb  Nb1  1  0.67364642  0.67364642  0.34413981  1
  Nb  Nb2  1  0.76968170  0.76968170  0.04755240  1
