# generated using pymatgen
data_2976_K16Sn8
_symmetry_space_group_name_H-M   'Fd -3 m'
_cell_length_a   11.94533473
_cell_length_b   11.94533473
_cell_length_c   11.94533473
_cell_angle_alpha   60.00000000
_cell_angle_beta   60.00000000
_cell_angle_gamma   60.00000000
_chemical_formula_structural   K16Sn8
_chemical_formula_sum   'K16 Sn8'
_cell_volume   1205.25786428
loop_
 _symmetry_equiv_pos_site_id
 _symmetry_equiv_pos_as_xyz
  1  'x, y, z'
loop_
 _atom_type_symbol
  K
  Sn
loop_
 _atom_site_type_symbol
 _atom_site_label
 _atom_site_symmetry_multiplicity
 _atom_site_fract_x
 _atom_site_fract_y
 _atom_site_fract_z
 _atom_site_occupancy
  K  K0  1  0.00000000  0.50000000  0.00000000  1
  K  K1  1  0.50000000  0.00000000  0.00000000  1
  K  K2  1  0.50000000  0.50000000  0.00000000  1
  K  K3  1  0.50000000  0.50000000  0.50000000  1
  K  K4  1  0.92820900  0.92820900  0.82179100  1
  K  K5  1  0.92820900  0.32179100  0.82179100  1
  K  K6  1  0.32179100  0.92820900  0.82179100  1
  K  K7  1  0.92820900  0.32179100  0.42820900  1
  K  K8  1  0.32179100  0.92820900  0.42820900  1
  K  K9  1  0.32179100  0.32179100  0.42820900  1
  K  K10  1  0.07179100  0.07179100  0.17820900  1
  K  K11  1  0.07179100  0.67820900  0.17820900  1
  K  K12  1  0.67820900  0.07179100  0.17820900  1
  K  K13  1  0.07179100  0.67820900  0.57179100  1
  K  K14  1  0.67820900  0.07179100  0.57179100  1
  K  K15  1  0.67820900  0.67820900  0.57179100  1
  Sn  Sn0  1  0.68933050  0.68933050  0.93200851  1
  Sn  Sn1  1  0.68933050  0.68933050  0.18933050  1
  Sn  Sn2  1  0.68933050  0.43200851  0.18933050  1
  Sn  Sn3  1  0.43200851  0.68933050  0.18933050  1
  Sn  Sn4  1  0.31066950  0.31066950  0.06799149  1
  Sn  Sn5  1  0.31066950  0.31066950  0.81066950  1
  Sn  Sn6  1  0.31066950  0.56799149  0.81066950  1
  Sn  Sn7  1  0.56799149  0.31066950  0.81066950  1
