# generated using pymatgen
data_2980_Al6Cu18
_symmetry_space_group_name_H-M   'Pmmn'
_cell_length_a   4.54513107
_cell_length_b   5.15037358
_cell_length_c   12.70455389
_cell_angle_alpha   90.00000000
_cell_angle_beta   90.00000000
_cell_angle_gamma   90.00000000
_chemical_formula_structural   Al6Cu18
_chemical_formula_sum   'Al6 Cu18'
_cell_volume   297.40246442
loop_
 _symmetry_equiv_pos_site_id
 _symmetry_equiv_pos_as_xyz
  1  'x, y, z'
loop_
 _atom_type_symbol
  Al
  Cu
loop_
 _atom_site_type_symbol
 _atom_site_label
 _atom_site_symmetry_multiplicity
 _atom_site_fract_x
 _atom_site_fract_y
 _atom_site_fract_z
 _atom_site_occupancy
  Al  Al0  1  0.01166140  0.25000000  0.75000000  1
  Al  Al1  1  0.66261298  0.25000000  0.41546319  1
  Al  Al2  1  0.66261298  0.25000000  0.08453681  1
  Al  Al3  1  0.98833860  0.75000000  0.25000000  1
  Al  Al4  1  0.33738702  0.75000000  0.91546319  1
  Al  Al5  1  0.33738702  0.75000000  0.58453681  1
  Cu  Cu0  1  0.16228277  0.99935249  0.41733877  1
  Cu  Cu1  1  0.16228277  0.99935249  0.08266123  1
  Cu  Cu2  1  0.51466900  0.00018579  0.75000000  1
  Cu  Cu3  1  0.48533100  0.99981421  0.25000000  1
  Cu  Cu4  1  0.83771723  0.00064751  0.91733877  1
  Cu  Cu5  1  0.83771723  0.00064751  0.58266123  1
  Cu  Cu6  1  0.98794939  0.25000000  0.25000000  1
  Cu  Cu7  1  0.33931759  0.25000000  0.91650983  1
  Cu  Cu8  1  0.33931759  0.25000000  0.58349017  1
  Cu  Cu9  1  0.16228277  0.50064751  0.41733877  1
  Cu  Cu10  1  0.16228277  0.50064751  0.08266123  1
  Cu  Cu11  1  0.51466900  0.49981421  0.75000000  1
  Cu  Cu12  1  0.48533100  0.50018579  0.25000000  1
  Cu  Cu13  1  0.83771723  0.49935249  0.91733877  1
  Cu  Cu14  1  0.83771723  0.49935249  0.58266123  1
  Cu  Cu15  1  0.01205061  0.75000000  0.75000000  1
  Cu  Cu16  1  0.66068241  0.75000000  0.41650983  1
  Cu  Cu17  1  0.66068241  0.75000000  0.08349017  1
