# generated using pymatgen
data_2984_W2As4
_symmetry_space_group_name_H-M   'Cmcm'
_cell_length_a   6.54320769
_cell_length_b   6.54320769
_cell_length_c   4.62774895
_cell_angle_alpha   90.00000000
_cell_angle_beta   90.00000000
_cell_angle_gamma   150.33673030
_chemical_formula_structural   W2As4
_chemical_formula_sum   'As4 W2'
_cell_volume   98.05509452
loop_
 _symmetry_equiv_pos_site_id
 _symmetry_equiv_pos_as_xyz
  1  'x, y, z'
loop_
 _atom_type_symbol
  As
  W
loop_
 _atom_site_type_symbol
 _atom_site_label
 _atom_site_symmetry_multiplicity
 _atom_site_fract_x
 _atom_site_fract_y
 _atom_site_fract_z
 _atom_site_occupancy
  As  As0  1  0.98971510  0.01028490  0.00000000  1
  As  As1  1  0.66018724  0.33981276  0.00000000  1
  As  As2  1  0.45472934  0.54527066  0.50000000  1
  As  As3  1  0.78425720  0.21574280  0.50000000  1
  W  W0  1  0.32431320  0.67568680  0.00000000  1
  W  W1  1  0.12013124  0.87986876  0.50000000  1
