# generated using pymatgen
data_2985_AgMo2
_symmetry_space_group_name_H-M   'Immm'
_cell_length_a   2.61100958
_cell_length_b   8.54661472
_cell_length_c   4.38637601
_cell_angle_alpha   90.00000000
_cell_angle_beta   90.00000000
_cell_angle_gamma   90.00000000
_chemical_formula_structural   AgMo2
_chemical_formula_sum   'Ag2 Mo4'
_cell_volume   97.88326548
loop_
 _symmetry_equiv_pos_site_id
 _symmetry_equiv_pos_as_xyz
  1  'x, y, z'
loop_
 _atom_type_symbol
  Ag
  Mo
loop_
 _atom_site_type_symbol
 _atom_site_label
 _atom_site_symmetry_multiplicity
 _atom_site_fract_x
 _atom_site_fract_y
 _atom_site_fract_z
 _atom_site_occupancy
  Ag  Ag0  1  0.00000000  0.00000000  0.00000000  1
  Ag  Ag1  1  0.50000000  0.50000000  0.50000000  1
  Mo  Mo0  1  0.00304638  0.33372629  0.00000000  1
  Mo  Mo1  1  0.49695362  0.83372629  0.50000000  1
  Mo  Mo2  1  0.50304638  0.16627371  0.50000000  1
  Mo  Mo3  1  0.99695362  0.66627371  0.00000000  1
