# generated using pymatgen
data_2992_Mn2W
_symmetry_space_group_name_H-M   'Fmmm'
_cell_length_a   6.32234611
_cell_length_b   6.16387184
_cell_length_c   2.61825745
_cell_angle_alpha   81.30569725
_cell_angle_beta   74.51419853
_cell_angle_gamma   24.16625284
_chemical_formula_structural   Mn2W
_chemical_formula_sum   'Mn2 W1'
_cell_volume   39.13422704
loop_
 _symmetry_equiv_pos_site_id
 _symmetry_equiv_pos_as_xyz
  1  'x, y, z'
loop_
 _atom_type_symbol
  Mn
  W
loop_
 _atom_site_type_symbol
 _atom_site_label
 _atom_site_symmetry_multiplicity
 _atom_site_fract_x
 _atom_site_fract_y
 _atom_site_fract_z
 _atom_site_occupancy
  Mn  Mn0  1  0.00726030  0.00735657  0.99280603  1
  Mn  Mn1  1  0.65940636  0.65931010  0.34052730  1
  W  W0  1  0.33333333  0.33333333  0.66666667  1
