# generated using pymatgen
data_2994_Ir5Mn
_symmetry_space_group_name_H-M   'F-43m'
_cell_length_a   5.09945497
_cell_length_b   5.09945497
_cell_length_c   5.09945497
_cell_angle_alpha   60.00000000
_cell_angle_beta   60.00000000
_cell_angle_gamma   60.00000000
_chemical_formula_structural   Ir5Mn
_chemical_formula_sum   'Ir5 Mn1'
_cell_volume   93.76835255
loop_
 _symmetry_equiv_pos_site_id
 _symmetry_equiv_pos_as_xyz
  1  'x, y, z'
loop_
 _atom_type_symbol
  Ir
  Mn
loop_
 _atom_site_type_symbol
 _atom_site_label
 _atom_site_symmetry_multiplicity
 _atom_site_fract_x
 _atom_site_fract_y
 _atom_site_fract_z
 _atom_site_occupancy
  Ir  Ir0  1  0.37504698  0.37504698  0.37504698  1
  Ir  Ir1  1  0.75000000  0.75000000  0.75000000  1
  Ir  Ir2  1  0.37504698  0.37504698  0.87485906  1
  Ir  Ir3  1  0.87485906  0.37504698  0.37504698  1
  Ir  Ir4  1  0.37504698  0.87485906  0.37504698  1
  Mn  Mn0  1  0.00000000  0.00000000  0.00000000  1
