# generated using pymatgen
data_2998_Ta3Sb5
_symmetry_space_group_name_H-M   'Cmmm'
_cell_length_a   6.03425027
_cell_length_b   6.03425027
_cell_length_c   4.95403808
_cell_angle_alpha   90.00000000
_cell_angle_beta   90.00000000
_cell_angle_gamma   105.42595772
_chemical_formula_structural   Ta3Sb5
_chemical_formula_sum   'Sb5 Ta3'
_cell_volume   173.88885452
loop_
 _symmetry_equiv_pos_site_id
 _symmetry_equiv_pos_as_xyz
  1  'x, y, z'
loop_
 _atom_type_symbol
  Sb
  Ta
loop_
 _atom_site_type_symbol
 _atom_site_label
 _atom_site_symmetry_multiplicity
 _atom_site_fract_x
 _atom_site_fract_y
 _atom_site_fract_z
 _atom_site_occupancy
  Sb  Sb0  1  0.00000000  0.00000000  0.00000000  1
  Sb  Sb1  1  0.00000000  0.50000000  0.00000000  1
  Sb  Sb2  1  0.50000000  1.00000000  0.00000000  1
  Sb  Sb3  1  0.27945100  0.27945100  0.50000000  1
  Sb  Sb4  1  0.72054900  0.72054900  0.50000000  1
  Ta  Ta0  1  0.50000000  0.50000000  0.00000000  1
  Ta  Ta1  1  0.74633898  0.25366102  0.50000000  1
  Ta  Ta2  1  0.25366102  0.74633898  0.50000000  1
