# generated using pymatgen
data_29_Nb2W6
_symmetry_space_group_name_H-M   'Pmmn'
_cell_length_a   5.25822571
_cell_length_b   4.83933653
_cell_length_c   5.33621243
_cell_angle_alpha   90.00000000
_cell_angle_beta   90.00000000
_cell_angle_gamma   90.00000000
_chemical_formula_structural   Nb2W6
_chemical_formula_sum   'Nb2 W6'
_cell_volume   135.78698915
loop_
 _symmetry_equiv_pos_site_id
 _symmetry_equiv_pos_as_xyz
  1  'x, y, z'
loop_
 _atom_type_symbol
  Nb
  W
loop_
 _atom_site_type_symbol
 _atom_site_label
 _atom_site_symmetry_multiplicity
 _atom_site_fract_x
 _atom_site_fract_y
 _atom_site_fract_z
 _atom_site_occupancy
  Nb  Nb0  1  0.00000000  0.00000000  0.64114354  1
  Nb  Nb1  1  0.50000000  0.50000000  0.35885646  1
  W  W0  1  0.00000000  0.50000000  0.34317838  1
  W  W1  1  0.50000000  0.00000000  0.65682162  1
  W  W2  1  0.25274877  0.00000000  0.14522325  1
  W  W3  1  0.74725123  0.00000000  0.14522325  1
  W  W4  1  0.75274877  0.50000000  0.85477675  1
  W  W5  1  0.24725123  0.50000000  0.85477675  1
