# generated using pymatgen
data_3001_Cu8Ta4
_symmetry_space_group_name_H-M   'Pnma'
_cell_length_a   5.54846694
_cell_length_b   3.85036426
_cell_length_c   7.97536636
_cell_angle_alpha   90.00000000
_cell_angle_beta   90.00000000
_cell_angle_gamma   90.00000000
_chemical_formula_structural   Cu8Ta4
_chemical_formula_sum   'Cu8 Ta4'
_cell_volume   170.38268673
loop_
 _symmetry_equiv_pos_site_id
 _symmetry_equiv_pos_as_xyz
  1  'x, y, z'
loop_
 _atom_type_symbol
  Cu
  Ta
loop_
 _atom_site_type_symbol
 _atom_site_label
 _atom_site_symmetry_multiplicity
 _atom_site_fract_x
 _atom_site_fract_y
 _atom_site_fract_z
 _atom_site_occupancy
  Cu  Cu0  1  0.08549301  0.25000000  0.25957671  1
  Cu  Cu1  1  0.41450699  0.75000000  0.75957671  1
  Cu  Cu2  1  0.58549301  0.25000000  0.24042329  1
  Cu  Cu3  1  0.91450699  0.75000000  0.74042329  1
  Cu  Cu4  1  0.12926606  0.25000000  0.58428838  1
  Cu  Cu5  1  0.37073394  0.75000000  0.08428838  1
  Cu  Cu6  1  0.62926606  0.25000000  0.91571162  1
  Cu  Cu7  1  0.87073394  0.75000000  0.41571162  1
  Ta  Ta0  1  0.64602050  0.25000000  0.57997123  1
  Ta  Ta1  1  0.85397950  0.75000000  0.07997123  1
  Ta  Ta2  1  0.14602050  0.25000000  0.92002877  1
  Ta  Ta3  1  0.35397950  0.75000000  0.42002877  1
