# generated using pymatgen
data_3004_Sn3W
_symmetry_space_group_name_H-M   'Pmmm'
_cell_length_a   3.23683555
_cell_length_b   3.36035927
_cell_length_c   8.44988236
_cell_angle_alpha   90.00000000
_cell_angle_beta   90.00000000
_cell_angle_gamma   90.00000000
_chemical_formula_structural   Sn3W
_chemical_formula_sum   'Sn3 W1'
_cell_volume   91.90878186
loop_
 _symmetry_equiv_pos_site_id
 _symmetry_equiv_pos_as_xyz
  1  'x, y, z'
loop_
 _atom_type_symbol
  Sn
  W
loop_
 _atom_site_type_symbol
 _atom_site_label
 _atom_site_symmetry_multiplicity
 _atom_site_fract_x
 _atom_site_fract_y
 _atom_site_fract_z
 _atom_site_occupancy
  Sn  Sn0  1  0.50000000  0.50000000  0.79694283  1
  Sn  Sn1  1  0.00000000  0.00000000  0.50000000  1
  Sn  Sn2  1  0.50000000  0.50000000  0.20305717  1
  W  W0  1  0.00000000  0.00000000  0.00000000  1
