# generated using pymatgen
data_3007_Ca2Cu4
_symmetry_space_group_name_H-M   'Pnnm'
_cell_length_a   3.96710893
_cell_length_b   3.06432722
_cell_length_c   8.30219919
_cell_angle_alpha   90.00000000
_cell_angle_beta   90.00000000
_cell_angle_gamma   90.00000000
_chemical_formula_structural   Ca2Cu4
_chemical_formula_sum   'Ca2 Cu4'
_cell_volume   100.92584949
loop_
 _symmetry_equiv_pos_site_id
 _symmetry_equiv_pos_as_xyz
  1  'x, y, z'
loop_
 _atom_type_symbol
  Ca
  Cu
loop_
 _atom_site_type_symbol
 _atom_site_label
 _atom_site_symmetry_multiplicity
 _atom_site_fract_x
 _atom_site_fract_y
 _atom_site_fract_z
 _atom_site_occupancy
  Ca  Ca0  1  0.00000000  0.00000000  0.00000000  1
  Ca  Ca1  1  0.50000000  0.50000000  0.50000000  1
  Cu  Cu0  1  0.00000000  0.91478885  0.68346149  1
  Cu  Cu1  1  0.00000000  0.08521115  0.31653851  1
  Cu  Cu2  1  0.50000000  0.41478885  0.81653851  1
  Cu  Cu3  1  0.50000000  0.58521115  0.18346149  1
