# generated using pymatgen
data_3022_Pb2P4
_symmetry_space_group_name_H-M   'I4/mcm'
_cell_length_a   5.73234479
_cell_length_b   5.73234479
_cell_length_c   5.73234479
_cell_angle_alpha   115.77491027
_cell_angle_beta   115.77491027
_cell_angle_gamma   97.48845302
_chemical_formula_structural   Pb2P4
_chemical_formula_sum   'P4 Pb2'
_cell_volume   140.39897168
loop_
 _symmetry_equiv_pos_site_id
 _symmetry_equiv_pos_as_xyz
  1  'x, y, z'
loop_
 _atom_type_symbol
  P
  Pb
loop_
 _atom_site_type_symbol
 _atom_site_label
 _atom_site_symmetry_multiplicity
 _atom_site_fract_x
 _atom_site_fract_y
 _atom_site_fract_z
 _atom_site_occupancy
  P  P0  1  0.38086751  0.11913249  0.50000000  1
  P  P1  1  0.61913249  0.88086751  0.50000000  1
  P  P2  1  0.11913249  0.61913249  0.73826498  1
  P  P3  1  0.88086751  0.38086751  0.26173502  1
  Pb  Pb0  1  0.75000000  0.75000000  0.00000000  1
  Pb  Pb1  1  0.25000000  0.25000000  0.00000000  1
