# generated using pymatgen
data_3024_Mo2Rh2
_symmetry_space_group_name_H-M   'I4_1/amd'
_cell_length_a   4.76145952
_cell_length_b   4.76145952
_cell_length_c   4.76145952
_cell_angle_alpha   131.23067119
_cell_angle_beta   131.23067119
_cell_angle_gamma   71.44684627
_chemical_formula_structural   Mo2Rh2
_chemical_formula_sum   'Mo2 Rh2'
_cell_volume   59.75308902
loop_
 _symmetry_equiv_pos_site_id
 _symmetry_equiv_pos_as_xyz
  1  'x, y, z'
loop_
 _atom_type_symbol
  Mo
  Rh
loop_
 _atom_site_type_symbol
 _atom_site_label
 _atom_site_symmetry_multiplicity
 _atom_site_fract_x
 _atom_site_fract_y
 _atom_site_fract_z
 _atom_site_occupancy
  Mo  Mo0  1  0.00000000  0.00000000  0.00000000  1
  Mo  Mo1  1  0.75000000  0.25000000  0.50000000  1
  Rh  Rh0  1  0.25000000  0.75000000  0.50000000  1
  Rh  Rh1  1  0.50000000  0.50000000  0.00000000  1
