# generated using pymatgen
data_3031_Ir2Ta
_symmetry_space_group_name_H-M   'Immm'
_cell_length_a   4.90475404
_cell_length_b   4.90475404
_cell_length_c   4.90475404
_cell_angle_alpha   146.77305941
_cell_angle_beta   133.01522240
_cell_angle_gamma   58.75494992
_chemical_formula_structural   Ir2Ta
_chemical_formula_sum   'Ir2 Ta1'
_cell_volume   46.87426696
loop_
 _symmetry_equiv_pos_site_id
 _symmetry_equiv_pos_as_xyz
  1  'x, y, z'
loop_
 _atom_type_symbol
  Ir
  Ta
loop_
 _atom_site_type_symbol
 _atom_site_label
 _atom_site_symmetry_multiplicity
 _atom_site_fract_x
 _atom_site_fract_y
 _atom_site_fract_z
 _atom_site_occupancy
  Ir  Ir0  1  0.66772212  0.66772212  1.00000000  1
  Ir  Ir1  1  0.33227788  0.33227788  1.00000000  1
  Ta  Ta0  1  0.00000000  0.00000000  0.00000000  1
