# generated using pymatgen
data_3032_Ag2Nb4
_symmetry_space_group_name_H-M   'C2/m'
_cell_length_a   5.43642586
_cell_length_b   5.43642586
_cell_length_c   11.10793307
_cell_angle_alpha   136.33551805
_cell_angle_beta   136.33551805
_cell_angle_gamma   29.85597300
_chemical_formula_structural   Ag2Nb4
_chemical_formula_sum   'Ag2 Nb4'
_cell_volume   108.34666373
loop_
 _symmetry_equiv_pos_site_id
 _symmetry_equiv_pos_as_xyz
  1  'x, y, z'
loop_
 _atom_type_symbol
  Ag
  Nb
loop_
 _atom_site_type_symbol
 _atom_site_label
 _atom_site_symmetry_multiplicity
 _atom_site_fract_x
 _atom_site_fract_y
 _atom_site_fract_z
 _atom_site_occupancy
  Ag  Ag0  1  0.10968737  0.10968737  0.71952315  1
  Ag  Ag1  1  0.33475707  0.33475707  0.66936574  1
  Nb  Nb0  1  0.98952597  0.98952597  0.00020184  1
  Nb  Nb1  1  0.45491847  0.45491847  0.38868705  1
  Nb  Nb2  1  0.67894264  0.67894264  0.33875361  1
  Nb  Nb3  1  0.76550181  0.76550181  0.05013528  1
