# generated using pymatgen
data_3036_Al4Mo4
_symmetry_space_group_name_H-M   'Pnma'
_cell_length_a   4.49603159
_cell_length_b   6.05731368
_cell_length_c   4.44670048
_cell_angle_alpha   90.00000000
_cell_angle_beta   90.00000000
_cell_angle_gamma   90.00000000
_chemical_formula_structural   Al4Mo4
_chemical_formula_sum   'Al4 Mo4'
_cell_volume   121.10087906
loop_
 _symmetry_equiv_pos_site_id
 _symmetry_equiv_pos_as_xyz
  1  'x, y, z'
loop_
 _atom_type_symbol
  Al
  Mo
loop_
 _atom_site_type_symbol
 _atom_site_label
 _atom_site_symmetry_multiplicity
 _atom_site_fract_x
 _atom_site_fract_y
 _atom_site_fract_z
 _atom_site_occupancy
  Al  Al0  1  0.75000000  0.87339231  0.02361273  1
  Al  Al1  1  0.25000000  0.37339231  0.47638727  1
  Al  Al2  1  0.75000000  0.62660769  0.52361273  1
  Al  Al3  1  0.25000000  0.12660769  0.97638727  1
  Mo  Mo0  1  0.75000000  0.37141265  0.01036430  1
  Mo  Mo1  1  0.25000000  0.87141265  0.48963570  1
  Mo  Mo2  1  0.75000000  0.12858735  0.51036430  1
  Mo  Mo3  1  0.25000000  0.62858735  0.98963570  1
