# generated using pymatgen
data_3039_Mo6W18
_symmetry_space_group_name_H-M   'Pmmn'
_cell_length_a   5.28828120
_cell_length_b   5.32470069
_cell_length_c   13.96581089
_cell_angle_alpha   89.99810748
_cell_angle_beta   90.00000000
_cell_angle_gamma   90.00000000
_chemical_formula_structural   Mo6W18
_chemical_formula_sum   'Mo6 W18'
_cell_volume   393.25648911
loop_
 _symmetry_equiv_pos_site_id
 _symmetry_equiv_pos_as_xyz
  1  'x, y, z'
loop_
 _atom_type_symbol
  Mo
  W
loop_
 _atom_site_type_symbol
 _atom_site_label
 _atom_site_symmetry_multiplicity
 _atom_site_fract_x
 _atom_site_fract_y
 _atom_site_fract_z
 _atom_site_occupancy
  Mo  Mo0  1  0.25000000  0.09043836  0.24995991  1
  Mo  Mo1  1  0.25000000  0.63195192  0.58429530  1
  Mo  Mo2  1  0.25000000  0.63193183  0.91562567  1
  Mo  Mo3  1  0.75000000  0.90954723  0.75002129  1
  Mo  Mo4  1  0.75000000  0.36808435  0.08435563  1
  Mo  Mo5  1  0.75000000  0.36804996  0.41567577  1
  W  W0  1  0.99988910  0.12982042  0.58270366  1
  W  W1  1  0.99989297  0.12982076  0.91720342  1
  W  W2  1  0.00129452  0.59093019  0.24995328  1
  W  W3  1  0.99870998  0.40906638  0.75002742  1
  W  W4  1  0.00011062  0.87018116  0.08277554  1
  W  W5  1  0.00010758  0.87017300  0.41727011  1
  W  W6  1  0.25000000  0.91095103  0.75002752  1
  W  W7  1  0.25000000  0.37322090  0.08154550  1
  W  W8  1  0.25000000  0.37320987  0.41849888  1
  W  W9  1  0.50011090  0.12982042  0.58270366  1
  W  W10  1  0.50010703  0.12982076  0.91720342  1
  W  W11  1  0.49870548  0.59093019  0.24995328  1
  W  W12  1  0.50129002  0.40906638  0.75002742  1
  W  W13  1  0.49988938  0.87018116  0.08277554  1
  W  W14  1  0.49989242  0.87017300  0.41727011  1
  W  W15  1  0.75000000  0.08905375  0.24995270  1
  W  W16  1  0.75000000  0.62679032  0.58147430  1
  W  W17  1  0.75000000  0.62678668  0.91843402  1
