# generated using pymatgen
data_303_Sb3Ge
_symmetry_space_group_name_H-M   'Immm'
_cell_length_a   6.13044687
_cell_length_b   6.13044687
_cell_length_c   6.13044687
_cell_angle_alpha   144.17045696
_cell_angle_beta   130.12330732
_cell_angle_gamma   62.92240056
_chemical_formula_structural   Sb3Ge
_chemical_formula_sum   'Ge1 Sb3'
_cell_volume   101.95675334
loop_
 _symmetry_equiv_pos_site_id
 _symmetry_equiv_pos_as_xyz
  1  'x, y, z'
loop_
 _atom_type_symbol
  Ge
  Sb
loop_
 _atom_site_type_symbol
 _atom_site_label
 _atom_site_symmetry_multiplicity
 _atom_site_fract_x
 _atom_site_fract_y
 _atom_site_fract_z
 _atom_site_occupancy
  Ge  Ge0  1  0.50000000  0.00000000  0.50000000  1
  Sb  Sb0  1  0.24954724  0.24954724  0.00000000  1
  Sb  Sb1  1  0.75045276  0.75045276  1.00000000  1
  Sb  Sb2  1  0.00000000  0.50000000  0.50000000  1
