# generated using pymatgen
data_3042_In2Sn2
_symmetry_space_group_name_H-M   'Cmcm'
_cell_length_a   6.35515455
_cell_length_b   6.35515455
_cell_length_c   4.37383716
_cell_angle_alpha   90.00000000
_cell_angle_beta   90.00000000
_cell_angle_gamma   137.95365206
_chemical_formula_structural   In2Sn2
_chemical_formula_sum   'In2 Sn2'
_cell_volume   118.30840279
loop_
 _symmetry_equiv_pos_site_id
 _symmetry_equiv_pos_as_xyz
  1  'x, y, z'
loop_
 _atom_type_symbol
  In
  Sn
loop_
 _atom_site_type_symbol
 _atom_site_label
 _atom_site_symmetry_multiplicity
 _atom_site_fract_x
 _atom_site_fract_y
 _atom_site_fract_z
 _atom_site_occupancy
  In  In0  1  0.85932689  0.14067311  0.75000000  1
  In  In1  1  0.14067311  0.85932689  0.25000000  1
  Sn  Sn0  1  0.59239111  0.40760889  0.75000000  1
  Sn  Sn1  1  0.40760889  0.59239111  0.25000000  1
