# generated using pymatgen
data_3044_Mo2W2
_symmetry_space_group_name_H-M   'Cmcm'
_cell_length_a   2.60493658
_cell_length_b   4.68741700
_cell_length_c   5.50532824
_cell_angle_alpha   90.00000000
_cell_angle_beta   103.68496666
_cell_angle_gamma   90.00000000
_chemical_formula_structural   Mo2W2
_chemical_formula_sum   'Mo2 W2'
_cell_volume   65.31403093
loop_
 _symmetry_equiv_pos_site_id
 _symmetry_equiv_pos_as_xyz
  1  'x, y, z'
loop_
 _atom_type_symbol
  Mo
  W
loop_
 _atom_site_type_symbol
 _atom_site_label
 _atom_site_symmetry_multiplicity
 _atom_site_fract_x
 _atom_site_fract_y
 _atom_site_fract_z
 _atom_site_occupancy
  Mo  Mo0  1  0.93111185  0.25000000  0.86222370  1
  Mo  Mo1  1  0.06888815  0.75000000  0.13777630  1
  W  W0  1  0.67883454  0.25000000  0.35766909  1
  W  W1  1  0.32116546  0.75000000  0.64233091  1
