# generated using pymatgen
data_3045_AcEu
_symmetry_space_group_name_H-M   'P-6m2'
_cell_length_a   3.97374246
_cell_length_b   3.97371332
_cell_length_c   6.42724102
_cell_angle_alpha   90.00000000
_cell_angle_beta   90.00000000
_cell_angle_gamma   120.00024258
_chemical_formula_structural   AcEu
_chemical_formula_sum   'Ac1 Eu1'
_cell_volume   87.89221415
loop_
 _symmetry_equiv_pos_site_id
 _symmetry_equiv_pos_as_xyz
  1  'x, y, z'
loop_
 _atom_type_symbol
  Ac
  Eu
loop_
 _atom_site_type_symbol
 _atom_site_label
 _atom_site_symmetry_multiplicity
 _atom_site_fract_x
 _atom_site_fract_y
 _atom_site_fract_z
 _atom_site_occupancy
  Ac  Ac0  1  0.66666716  0.33333333  0.75000000  1
  Eu  Eu0  1  0.33333284  0.66666667  0.25000000  1
