# generated using pymatgen
data_3046_Al2Fe2
_symmetry_space_group_name_H-M   'Pmmn'
_cell_length_a   2.63291389
_cell_length_b   4.42619767
_cell_length_c   4.39543662
_cell_angle_alpha   90.00000000
_cell_angle_beta   90.00000000
_cell_angle_gamma   90.00000000
_chemical_formula_structural   Al2Fe2
_chemical_formula_sum   'Al2 Fe2'
_cell_volume   51.22352753
loop_
 _symmetry_equiv_pos_site_id
 _symmetry_equiv_pos_as_xyz
  1  'x, y, z'
loop_
 _atom_type_symbol
  Al
  Fe
loop_
 _atom_site_type_symbol
 _atom_site_label
 _atom_site_symmetry_multiplicity
 _atom_site_fract_x
 _atom_site_fract_y
 _atom_site_fract_z
 _atom_site_occupancy
  Al  Al0  1  0.00000000  0.00000000  0.01830510  1
  Al  Al1  1  0.50000000  0.50000000  0.81502823  1
  Fe  Fe0  1  0.50000000  0.00000000  0.51142599  1
  Fe  Fe1  1  0.00000000  0.50000000  0.32190735  1
