# generated using pymatgen
data_3047_Sr2Br
_symmetry_space_group_name_H-M   'Fmmm'
_cell_length_a   4.34267208
_cell_length_b   7.15971811
_cell_length_c   16.63118810
_cell_angle_alpha   90.00000000
_cell_angle_beta   90.00000000
_cell_angle_gamma   90.00000000
_chemical_formula_structural   Sr2Br
_chemical_formula_sum   'Br4 Sr8'
_cell_volume   517.10202176
loop_
 _symmetry_equiv_pos_site_id
 _symmetry_equiv_pos_as_xyz
  1  'x, y, z'
loop_
 _atom_type_symbol
  Br
  Sr
loop_
 _atom_site_type_symbol
 _atom_site_label
 _atom_site_symmetry_multiplicity
 _atom_site_fract_x
 _atom_site_fract_y
 _atom_site_fract_z
 _atom_site_occupancy
  Br  Br0  1  0.00000000  0.00000000  0.00000000  1
  Br  Br1  1  0.50000000  0.50000000  0.00000000  1
  Br  Br2  1  0.50000000  0.00000000  0.50000000  1
  Br  Br3  1  0.00000000  0.50000000  0.50000000  1
  Sr  Sr0  1  0.50000000  0.00000000  0.14769256  1
  Sr  Sr1  1  0.00000000  0.50000000  0.14769256  1
  Sr  Sr2  1  0.00000000  0.00000000  0.64769256  1
  Sr  Sr3  1  0.50000000  0.50000000  0.64769256  1
  Sr  Sr4  1  0.00000000  0.00000000  0.35230744  1
  Sr  Sr5  1  0.50000000  0.50000000  0.35230744  1
  Sr  Sr6  1  0.50000000  0.00000000  0.85230744  1
  Sr  Sr7  1  0.00000000  0.50000000  0.85230744  1
