# generated using pymatgen
data_3048_WBr
_symmetry_space_group_name_H-M   'Cmmm'
_cell_length_a   3.11485330
_cell_length_b   3.11485330
_cell_length_c   4.69984492
_cell_angle_alpha   90.00000000
_cell_angle_beta   90.00000000
_cell_angle_gamma   124.52768471
_chemical_formula_structural   WBr
_chemical_formula_sum   'Br1 W1'
_cell_volume   37.56714050
loop_
 _symmetry_equiv_pos_site_id
 _symmetry_equiv_pos_as_xyz
  1  'x, y, z'
loop_
 _atom_type_symbol
  Br
  W
loop_
 _atom_site_type_symbol
 _atom_site_label
 _atom_site_symmetry_multiplicity
 _atom_site_fract_x
 _atom_site_fract_y
 _atom_site_fract_z
 _atom_site_occupancy
  Br  Br0  1  0.00000000  0.00000000  0.00000000  1
  W  W0  1  0.50000000  0.50000000  0.50000000  1
