# generated using pymatgen
data_3051_Al2Th
_symmetry_space_group_name_H-M   'P6/mmm'
_cell_length_a   4.41296917
_cell_length_b   4.41296876
_cell_length_c   4.17323581
_cell_angle_alpha   90.00000000
_cell_angle_beta   90.00000000
_cell_angle_gamma   120.00111195
_chemical_formula_structural   Al2Th
_chemical_formula_sum   'Al2 Th1'
_cell_volume   70.38181094
loop_
 _symmetry_equiv_pos_site_id
 _symmetry_equiv_pos_as_xyz
  1  'x, y, z'
loop_
 _atom_type_symbol
  Al
  Th
loop_
 _atom_site_type_symbol
 _atom_site_label
 _atom_site_symmetry_multiplicity
 _atom_site_fract_x
 _atom_site_fract_y
 _atom_site_fract_z
 _atom_site_occupancy
  Al  Al0  1  0.66670296  0.33338938  0.50000000  1
  Al  Al1  1  0.33338938  0.66670296  0.50000000  1
  Th  Th0  1  0.00000766  0.00000766  0.00000000  1
