# generated using pymatgen
data_305_Au3Ga
_symmetry_space_group_name_H-M   'P4/mmm'
_cell_length_a   3.04651629
_cell_length_b   3.04651629
_cell_length_c   7.64834291
_cell_angle_alpha   90.00000000
_cell_angle_beta   90.00000000
_cell_angle_gamma   90.00000000
_chemical_formula_structural   Au3Ga
_chemical_formula_sum   'Au3 Ga1'
_cell_volume   70.98627063
loop_
 _symmetry_equiv_pos_site_id
 _symmetry_equiv_pos_as_xyz
  1  'x, y, z'
loop_
 _atom_type_symbol
  Au
  Ga
loop_
 _atom_site_type_symbol
 _atom_site_label
 _atom_site_symmetry_multiplicity
 _atom_site_fract_x
 _atom_site_fract_y
 _atom_site_fract_z
 _atom_site_occupancy
  Au  Au0  1  0.50000000  0.50000000  0.76572624  1
  Au  Au1  1  0.00000000  0.00000000  0.50000000  1
  Au  Au2  1  0.50000000  0.50000000  0.23427376  1
  Ga  Ga0  1  0.00000000  0.00000000  0.00000000  1
