# generated using pymatgen
data_3064_Al4Br2
_symmetry_space_group_name_H-M   'Pnnm'
_cell_length_a   4.22757712
_cell_length_b   3.42833052
_cell_length_c   11.10024542
_cell_angle_alpha   90.00000000
_cell_angle_beta   90.00000000
_cell_angle_gamma   90.00000000
_chemical_formula_structural   Al4Br2
_chemical_formula_sum   'Al4 Br2'
_cell_volume   160.88175850
loop_
 _symmetry_equiv_pos_site_id
 _symmetry_equiv_pos_as_xyz
  1  'x, y, z'
loop_
 _atom_type_symbol
  Al
  Br
loop_
 _atom_site_type_symbol
 _atom_site_label
 _atom_site_symmetry_multiplicity
 _atom_site_fract_x
 _atom_site_fract_y
 _atom_site_fract_z
 _atom_site_occupancy
  Al  Al0  1  0.00000000  0.04945068  0.77258461  1
  Al  Al1  1  0.00000000  0.95054932  0.22741539  1
  Al  Al2  1  0.50000000  0.54945068  0.72741539  1
  Al  Al3  1  0.50000000  0.45054932  0.27258461  1
  Br  Br0  1  0.00000000  0.00000000  0.00000000  1
  Br  Br1  1  0.50000000  0.50000000  0.50000000  1
