# generated using pymatgen
data_3066_Nb8Br40
_symmetry_space_group_name_H-M   'Pnma'
_cell_length_a   6.62433789
_cell_length_b   13.89769169
_cell_length_c   19.41425983
_cell_angle_alpha   90.00000000
_cell_angle_beta   90.00000000
_cell_angle_gamma   90.00000000
_chemical_formula_structural   Nb8Br40
_chemical_formula_sum   'Br40 Nb8'
_cell_volume   1787.33511233
loop_
 _symmetry_equiv_pos_site_id
 _symmetry_equiv_pos_as_xyz
  1  'x, y, z'
loop_
 _atom_type_symbol
  Br
  Nb
loop_
 _atom_site_type_symbol
 _atom_site_label
 _atom_site_symmetry_multiplicity
 _atom_site_fract_x
 _atom_site_fract_y
 _atom_site_fract_z
 _atom_site_occupancy
  Br  Br0  1  0.79474055  0.19738354  0.75000000  1
  Br  Br1  1  0.29474055  0.30261646  0.25000000  1
  Br  Br2  1  0.20525945  0.80261646  0.25000000  1
  Br  Br3  1  0.70525945  0.69738354  0.75000000  1
  Br  Br4  1  0.21857398  0.05193331  0.75000000  1
  Br  Br5  1  0.71857398  0.44806669  0.25000000  1
  Br  Br6  1  0.78142602  0.94806669  0.25000000  1
  Br  Br7  1  0.28142602  0.55193331  0.75000000  1
  Br  Br8  1  0.78811405  0.97984620  0.65203465  1
  Br  Br9  1  0.28811405  0.52015380  0.34796535  1
  Br  Br10  1  0.21188595  0.02015380  0.15203465  1
  Br  Br11  1  0.71188595  0.47984620  0.84796535  1
  Br  Br12  1  0.21188595  0.02015380  0.34796535  1
  Br  Br13  1  0.71188595  0.47984620  0.65203465  1
  Br  Br14  1  0.78811405  0.97984620  0.84796535  1
  Br  Br15  1  0.28811405  0.52015380  0.15203465  1
  Br  Br16  1  0.72533804  0.22990949  0.34746801  1
  Br  Br17  1  0.22533804  0.27009051  0.65253199  1
  Br  Br18  1  0.27466196  0.77009051  0.84746801  1
  Br  Br19  1  0.77466196  0.72990949  0.15253199  1
  Br  Br20  1  0.27466196  0.77009051  0.65253199  1
  Br  Br21  1  0.77466196  0.72990949  0.34746801  1
  Br  Br22  1  0.72533804  0.22990949  0.15253199  1
  Br  Br23  1  0.22533804  0.27009051  0.84746801  1
  Br  Br24  1  0.24369654  0.04468479  0.56352219  1
  Br  Br25  1  0.74369654  0.45531521  0.43647781  1
  Br  Br26  1  0.75630346  0.95531521  0.06352219  1
  Br  Br27  1  0.25630346  0.54468479  0.93647781  1
  Br  Br28  1  0.75630346  0.95531521  0.43647781  1
  Br  Br29  1  0.25630346  0.54468479  0.56352219  1
  Br  Br30  1  0.24369654  0.04468479  0.93647781  1
  Br  Br31  1  0.74369654  0.45531521  0.06352219  1
  Br  Br32  1  0.72787472  0.70519276  0.56300202  1
  Br  Br33  1  0.22787472  0.79480724  0.43699798  1
  Br  Br34  1  0.27212528  0.29480724  0.06300202  1
  Br  Br35  1  0.77212528  0.20519276  0.93699798  1
  Br  Br36  1  0.27212528  0.29480724  0.43699798  1
  Br  Br37  1  0.77212528  0.20519276  0.56300202  1
  Br  Br38  1  0.72787472  0.70519276  0.93699798  1
  Br  Br39  1  0.22787472  0.79480724  0.06300202  1
  Nb  Nb0  1  0.00723376  0.12487963  0.64086087  1
  Nb  Nb1  1  0.50723376  0.37512037  0.35913913  1
  Nb  Nb2  1  0.99276624  0.87512037  0.14086087  1
  Nb  Nb3  1  0.49276624  0.62487963  0.85913913  1
  Nb  Nb4  1  0.99276624  0.87512037  0.35913913  1
  Nb  Nb5  1  0.49276624  0.62487963  0.64086087  1
  Nb  Nb6  1  0.00723376  0.12487963  0.85913913  1
  Nb  Nb7  1  0.50723376  0.37512037  0.14086087  1
