# generated using pymatgen
data_3067_K4Ta2
_symmetry_space_group_name_H-M   'I4/mcm'
_cell_length_a   7.47057175
_cell_length_b   7.47057175
_cell_length_c   7.47057175
_cell_angle_alpha   96.41967522
_cell_angle_beta   96.41967522
_cell_angle_gamma   140.93028296
_chemical_formula_structural   K4Ta2
_chemical_formula_sum   'K4 Ta2'
_cell_volume   247.64980410
loop_
 _symmetry_equiv_pos_site_id
 _symmetry_equiv_pos_as_xyz
  1  'x, y, z'
loop_
 _atom_type_symbol
  K
  Ta
loop_
 _atom_site_type_symbol
 _atom_site_label
 _atom_site_symmetry_multiplicity
 _atom_site_fract_x
 _atom_site_fract_y
 _atom_site_fract_z
 _atom_site_occupancy
  K  K0  1  0.33966510  0.16033490  0.50000000  1
  K  K1  1  0.66033490  0.83966510  0.50000000  1
  K  K2  1  0.16033490  0.66033490  0.82066980  1
  K  K3  1  0.83966510  0.33966510  0.17933020  1
  Ta  Ta0  1  0.75000000  0.75000000  0.00000000  1
  Ta  Ta1  1  0.25000000  0.25000000  0.00000000  1
