# generated using pymatgen
data_3070_Au3Mn
_symmetry_space_group_name_H-M   'P4/mmm'
_cell_length_a   3.11838542
_cell_length_b   3.11838542
_cell_length_c   7.12681616
_cell_angle_alpha   90.00000000
_cell_angle_beta   90.00000000
_cell_angle_gamma   90.00000000
_chemical_formula_structural   Au3Mn
_chemical_formula_sum   'Au3 Mn1'
_cell_volume   69.30349548
loop_
 _symmetry_equiv_pos_site_id
 _symmetry_equiv_pos_as_xyz
  1  'x, y, z'
loop_
 _atom_type_symbol
  Au
  Mn
loop_
 _atom_site_type_symbol
 _atom_site_label
 _atom_site_symmetry_multiplicity
 _atom_site_fract_x
 _atom_site_fract_y
 _atom_site_fract_z
 _atom_site_occupancy
  Au  Au0  1  0.00000000  0.00000000  0.01963870  1
  Au  Au1  1  0.00000000  0.00000000  0.48036130  1
  Au  Au2  1  0.50000000  0.50000000  0.75000000  1
  Mn  Mn0  1  0.50000000  0.50000000  0.25000000  1
