# generated using pymatgen
data_3072_CaSb3
_symmetry_space_group_name_H-M   'Cmmm'
_cell_length_a   4.21556194
_cell_length_b   4.21556194
_cell_length_c   6.30523792
_cell_angle_alpha   90.00000000
_cell_angle_beta   90.00000000
_cell_angle_gamma   91.10492031
_chemical_formula_structural   CaSb3
_chemical_formula_sum   'Ca1 Sb3'
_cell_volume   112.02931174
loop_
 _symmetry_equiv_pos_site_id
 _symmetry_equiv_pos_as_xyz
  1  'x, y, z'
loop_
 _atom_type_symbol
  Ca
  Sb
loop_
 _atom_site_type_symbol
 _atom_site_label
 _atom_site_symmetry_multiplicity
 _atom_site_fract_x
 _atom_site_fract_y
 _atom_site_fract_z
 _atom_site_occupancy
  Ca  Ca0  1  0.00000000  0.00000000  0.00000000  1
  Sb  Sb0  1  0.50000000  0.50000000  0.75237405  1
  Sb  Sb1  1  0.00000000  0.00000000  0.50000000  1
  Sb  Sb2  1  0.50000000  0.50000000  0.24762595  1
