# generated using pymatgen
data_3073_Mn4Rh2
_symmetry_space_group_name_H-M   'Cmcm'
_cell_length_a   6.84078584
_cell_length_b   6.84078584
_cell_length_c   4.09851498
_cell_angle_alpha   90.00000000
_cell_angle_beta   90.00000000
_cell_angle_gamma   158.10442663
_chemical_formula_structural   Mn4Rh2
_chemical_formula_sum   'Mn4 Rh2'
_cell_volume   71.52364633
loop_
 _symmetry_equiv_pos_site_id
 _symmetry_equiv_pos_as_xyz
  1  'x, y, z'
loop_
 _atom_type_symbol
  Mn
  Rh
loop_
 _atom_site_type_symbol
 _atom_site_label
 _atom_site_symmetry_multiplicity
 _atom_site_fract_x
 _atom_site_fract_y
 _atom_site_fract_z
 _atom_site_occupancy
  Mn  Mn0  1  0.99967833  0.00032167  0.00000000  1
  Mn  Mn1  1  0.22243195  0.77756805  0.50000000  1
  Mn  Mn2  1  0.33312361  0.66687639  0.00000000  1
  Mn  Mn3  1  0.55587722  0.44412278  0.50000000  1
  Rh  Rh0  1  0.66703979  0.33296021  0.00000000  1
  Rh  Rh1  1  0.88851577  0.11148423  0.50000000  1
