# generated using pymatgen
data_3076_Cu2Ta4
_symmetry_space_group_name_H-M   'Cmcm'
_cell_length_a   3.59667240
_cell_length_b   6.61802793
_cell_length_c   4.29159870
_cell_angle_alpha   90.00000000
_cell_angle_beta   90.00000000
_cell_angle_gamma   74.23258695
_chemical_formula_structural   Cu2Ta4
_chemical_formula_sum   'Cu2 Ta4'
_cell_volume   98.30868264
loop_
 _symmetry_equiv_pos_site_id
 _symmetry_equiv_pos_as_xyz
  1  'x, y, z'
loop_
 _atom_type_symbol
  Cu
  Ta
loop_
 _atom_site_type_symbol
 _atom_site_label
 _atom_site_symmetry_multiplicity
 _atom_site_fract_x
 _atom_site_fract_y
 _atom_site_fract_z
 _atom_site_occupancy
  Cu  Cu0  1  0.91506144  0.16987712  0.25000000  1
  Cu  Cu1  1  0.08493856  0.83012288  0.75000000  1
  Ta  Ta0  1  0.57896475  0.84207050  0.25000000  1
  Ta  Ta1  1  0.42103525  0.15792950  0.75000000  1
  Ta  Ta2  1  0.25451550  0.49096901  0.25000000  1
  Ta  Ta3  1  0.74548450  0.50903099  0.75000000  1
