# generated using pymatgen
data_3077_Au3Mn
_symmetry_space_group_name_H-M   'I4/mmm'
_cell_length_a   5.02850231
_cell_length_b   5.02850231
_cell_length_c   5.02850231
_cell_angle_alpha   131.83400918
_cell_angle_beta   131.83400918
_cell_angle_gamma   70.49131801
_chemical_formula_structural   Au3Mn
_chemical_formula_sum   'Au3 Mn1'
_cell_volume   69.16362117
loop_
 _symmetry_equiv_pos_site_id
 _symmetry_equiv_pos_as_xyz
  1  'x, y, z'
loop_
 _atom_type_symbol
  Au
  Mn
loop_
 _atom_site_type_symbol
 _atom_site_label
 _atom_site_symmetry_multiplicity
 _atom_site_fract_x
 _atom_site_fract_y
 _atom_site_fract_z
 _atom_site_occupancy
  Au  Au0  1  0.00000000  0.00000000  0.00000000  1
  Au  Au1  1  0.50000000  0.50000000  0.00000000  1
  Au  Au2  1  0.75000000  0.25000000  0.50000000  1
  Mn  Mn0  1  0.25000000  0.75000000  0.50000000  1
