# generated using pymatgen
data_307_NbW3
_symmetry_space_group_name_H-M   'Pmm2'
_cell_length_a   2.79459203
_cell_length_b   5.04241749
_cell_length_c   4.83763839
_cell_angle_alpha   90.00000000
_cell_angle_beta   90.00000000
_cell_angle_gamma   90.00000000
_chemical_formula_structural   NbW3
_chemical_formula_sum   'Nb1 W3'
_cell_volume   68.16958006
loop_
 _symmetry_equiv_pos_site_id
 _symmetry_equiv_pos_as_xyz
  1  'x, y, z'
loop_
 _atom_type_symbol
  Nb
  W
loop_
 _atom_site_type_symbol
 _atom_site_label
 _atom_site_symmetry_multiplicity
 _atom_site_fract_x
 _atom_site_fract_y
 _atom_site_fract_z
 _atom_site_occupancy
  Nb  Nb0  1  0.00000000  0.00000000  0.99707479  1
  W  W0  1  0.00000000  0.50000000  0.33525796  1
  W  W1  1  0.50000000  0.00000000  0.50240164  1
  W  W2  1  0.50000000  0.50000000  0.83193228  1
