# generated using pymatgen
data_3081_GeAs3
_symmetry_space_group_name_H-M   'Pmmm'
_cell_length_a   3.02116096
_cell_length_b   4.26778756
_cell_length_c   6.03829897
_cell_angle_alpha   90.00000000
_cell_angle_beta   90.00000000
_cell_angle_gamma   90.00000000
_chemical_formula_structural   GeAs3
_chemical_formula_sum   'As3 Ge1'
_cell_volume   77.85585337
loop_
 _symmetry_equiv_pos_site_id
 _symmetry_equiv_pos_as_xyz
  1  'x, y, z'
loop_
 _atom_type_symbol
  As
  Ge
loop_
 _atom_site_type_symbol
 _atom_site_label
 _atom_site_symmetry_multiplicity
 _atom_site_fract_x
 _atom_site_fract_y
 _atom_site_fract_z
 _atom_site_occupancy
  As  As0  1  0.50000000  0.50000000  0.75010170  1
  As  As1  1  0.00000000  0.00000000  0.50000000  1
  As  As2  1  0.50000000  0.50000000  0.24989830  1
  Ge  Ge0  1  0.00000000  0.00000000  0.00000000  1
