# generated using pymatgen
data_3084_AgFe2
_symmetry_space_group_name_H-M   'Fmmm'
_cell_length_a   6.67851343
_cell_length_b   6.51307403
_cell_length_c   2.63695416
_cell_angle_alpha   81.74531659
_cell_angle_beta   74.94354147
_cell_angle_gamma   23.01571818
_chemical_formula_structural   AgFe2
_chemical_formula_sum   'Ag1 Fe2'
_cell_volume   41.89797145
loop_
 _symmetry_equiv_pos_site_id
 _symmetry_equiv_pos_as_xyz
  1  'x, y, z'
loop_
 _atom_type_symbol
  Ag
  Fe
loop_
 _atom_site_type_symbol
 _atom_site_label
 _atom_site_symmetry_multiplicity
 _atom_site_fract_x
 _atom_site_fract_y
 _atom_site_fract_z
 _atom_site_occupancy
  Ag  Ag0  1  0.00000000  0.00000000  0.00000000  1
  Fe  Fe0  1  0.32163663  0.32171909  0.67742628  1
  Fe  Fe1  1  0.67836337  0.67828091  0.32257372  1
