# generated using pymatgen
data_3091_Mo4W4
_symmetry_space_group_name_H-M   'Pnma'
_cell_length_a   5.32334124
_cell_length_b   4.69698021
_cell_length_c   5.25387346
_cell_angle_alpha   90.00000000
_cell_angle_beta   90.00000000
_cell_angle_gamma   90.00000000
_chemical_formula_structural   Mo4W4
_chemical_formula_sum   'Mo4 W4'
_cell_volume   131.36589995
loop_
 _symmetry_equiv_pos_site_id
 _symmetry_equiv_pos_as_xyz
  1  'x, y, z'
loop_
 _atom_type_symbol
  Mo
  W
loop_
 _atom_site_type_symbol
 _atom_site_label
 _atom_site_symmetry_multiplicity
 _atom_site_fract_x
 _atom_site_fract_y
 _atom_site_fract_z
 _atom_site_occupancy
  Mo  Mo0  1  0.10120532  0.25000000  0.15539334  1
  Mo  Mo1  1  0.39879468  0.75000000  0.65539334  1
  Mo  Mo2  1  0.60120532  0.25000000  0.34460666  1
  Mo  Mo3  1  0.89879468  0.75000000  0.84460666  1
  W  W0  1  0.09930531  0.25000000  0.65582329  1
  W  W1  1  0.40069469  0.75000000  0.15582329  1
  W  W2  1  0.59930531  0.25000000  0.84417671  1
  W  W3  1  0.90069469  0.75000000  0.34417671  1
