# generated using pymatgen
data_3092_Al4Sn2
_symmetry_space_group_name_H-M   'Cm'
_cell_length_a   5.78963940
_cell_length_b   5.78963940
_cell_length_c   7.30963962
_cell_angle_alpha   84.64209033
_cell_angle_beta   84.64209033
_cell_angle_gamma   31.36816716
_chemical_formula_structural   Al4Sn2
_chemical_formula_sum   'Al4 Sn2'
_cell_volume   126.93953444
loop_
 _symmetry_equiv_pos_site_id
 _symmetry_equiv_pos_as_xyz
  1  'x, y, z'
loop_
 _atom_type_symbol
  Al
  Sn
loop_
 _atom_site_type_symbol
 _atom_site_label
 _atom_site_symmetry_multiplicity
 _atom_site_fract_x
 _atom_site_fract_y
 _atom_site_fract_z
 _atom_site_occupancy
  Al  Al0  1  0.96210835  0.96210835  0.04965430  1
  Al  Al1  1  0.33372380  0.33372380  0.31755927  1
  Al  Al2  1  0.72171975  0.72171975  0.59648721  1
  Al  Al3  1  0.60048465  0.60048465  0.28186748  1
  Sn  Sn0  1  0.98430855  0.98430855  0.63784275  1
  Sn  Sn1  1  0.23098823  0.23098823  0.94992232  1
