# generated using pymatgen
data_3095_PtSr
_symmetry_space_group_name_H-M   'Fm -3 m'
_cell_length_a   6.16155259
_cell_length_b   6.16155259
_cell_length_c   6.16155259
_cell_angle_alpha   90.00000000
_cell_angle_beta   90.00000000
_cell_angle_gamma   90.00000000
_chemical_formula_structural   PtSr
_chemical_formula_sum   'Pt4 Sr4'
_cell_volume   233.92168243
loop_
 _symmetry_equiv_pos_site_id
 _symmetry_equiv_pos_as_xyz
  1  'x, y, z'
loop_
 _atom_type_symbol
  Pt
  Sr
loop_
 _atom_site_type_symbol
 _atom_site_label
 _atom_site_symmetry_multiplicity
 _atom_site_fract_x
 _atom_site_fract_y
 _atom_site_fract_z
 _atom_site_occupancy
  Pt  Pt0  1  0.00280034  0.00280034  0.00280034  1
  Pt  Pt1  1  0.49719966  0.99719966  0.50280034  1
  Pt  Pt2  1  0.99719966  0.50280034  0.49719966  1
  Pt  Pt3  1  0.50280034  0.49719966  0.99719966  1
  Sr  Sr0  1  0.49716466  0.49716466  0.49716466  1
  Sr  Sr1  1  0.00283534  0.50283534  0.99716466  1
  Sr  Sr2  1  0.50283534  0.99716466  0.00283534  1
  Sr  Sr3  1  0.99716466  0.00283534  0.50283534  1
