# generated using pymatgen
data_3098_AlSn3
_symmetry_space_group_name_H-M   'C2/m'
_cell_length_a   5.60967626
_cell_length_b   5.60967626
_cell_length_c   5.89480638
_cell_angle_alpha   79.67202286
_cell_angle_beta   79.67202286
_cell_angle_gamma   34.39318041
_chemical_formula_structural   AlSn3
_chemical_formula_sum   'Al1 Sn3'
_cell_volume   102.92163193
loop_
 _symmetry_equiv_pos_site_id
 _symmetry_equiv_pos_as_xyz
  1  'x, y, z'
loop_
 _atom_type_symbol
  Al
  Sn
loop_
 _atom_site_type_symbol
 _atom_site_label
 _atom_site_symmetry_multiplicity
 _atom_site_fract_x
 _atom_site_fract_y
 _atom_site_fract_z
 _atom_site_occupancy
  Al  Al0  1  0.00000000  0.00000000  0.00000000  1
  Sn  Sn0  1  0.50000000  0.50000000  0.50000000  1
  Sn  Sn1  1  0.25868903  0.25868903  0.23518316  1
  Sn  Sn2  1  0.74131097  0.74131097  0.76481684  1
