# generated using pymatgen
data_30_In5Br
_symmetry_space_group_name_H-M   'Amm2'
_cell_length_a   8.96268512
_cell_length_b   8.96268512
_cell_length_c   5.50346654
_cell_angle_alpha   90.00000000
_cell_angle_beta   90.00000000
_cell_angle_gamma   157.26770562
_chemical_formula_structural   In5Br
_chemical_formula_sum   'Br1 In5'
_cell_volume   170.83580823
loop_
 _symmetry_equiv_pos_site_id
 _symmetry_equiv_pos_as_xyz
  1  'x, y, z'
loop_
 _atom_type_symbol
  Br
  In
loop_
 _atom_site_type_symbol
 _atom_site_label
 _atom_site_symmetry_multiplicity
 _atom_site_fract_x
 _atom_site_fract_y
 _atom_site_fract_z
 _atom_site_occupancy
  Br  Br0  1  0.97377131  0.02622869  0.00000000  1
  In  In0  1  0.32014391  0.67985609  0.00000000  1
  In  In1  1  0.65723726  0.34276274  0.00000000  1
  In  In2  1  0.46557740  0.53442260  0.50000000  1
  In  In3  1  0.78936323  0.21063677  0.50000000  1
  In  In4  1  0.12724022  0.87275978  0.50000000  1
