# generated using pymatgen
data_3103_Al2Sn4
_symmetry_space_group_name_H-M   'C2/m'
_cell_length_a   7.01253106
_cell_length_b   7.01253106
_cell_length_c   6.65274807
_cell_angle_alpha   72.42998814
_cell_angle_beta   72.42998814
_cell_angle_gamma   28.53213304
_chemical_formula_structural   Al2Sn4
_chemical_formula_sum   'Al2 Sn4'
_cell_volume   148.49147908
loop_
 _symmetry_equiv_pos_site_id
 _symmetry_equiv_pos_as_xyz
  1  'x, y, z'
loop_
 _atom_type_symbol
  Al
  Sn
loop_
 _atom_site_type_symbol
 _atom_site_label
 _atom_site_symmetry_multiplicity
 _atom_site_fract_x
 _atom_site_fract_y
 _atom_site_fract_z
 _atom_site_occupancy
  Al  Al0  1  0.49723138  0.49723138  0.78531936  1
  Al  Al1  1  0.50276862  0.50276862  0.21468064  1
  Sn  Sn0  1  0.83627020  0.83627020  0.11324833  1
  Sn  Sn1  1  0.16372980  0.16372980  0.88675167  1
  Sn  Sn2  1  0.86650810  0.86650810  0.58476550  1
  Sn  Sn3  1  0.13349190  0.13349190  0.41523450  1
