# generated using pymatgen
data_3104_Mn3Rh
_symmetry_space_group_name_H-M   'P4/mmm'
_cell_length_a   3.08998959
_cell_length_b   3.08998959
_cell_length_c   5.65474366
_cell_angle_alpha   90.00000000
_cell_angle_beta   90.00000000
_cell_angle_gamma   90.00000000
_chemical_formula_structural   Mn3Rh
_chemical_formula_sum   'Mn3 Rh1'
_cell_volume   53.99169415
loop_
 _symmetry_equiv_pos_site_id
 _symmetry_equiv_pos_as_xyz
  1  'x, y, z'
loop_
 _atom_type_symbol
  Mn
  Rh
loop_
 _atom_site_type_symbol
 _atom_site_label
 _atom_site_symmetry_multiplicity
 _atom_site_fract_x
 _atom_site_fract_y
 _atom_site_fract_z
 _atom_site_occupancy
  Mn  Mn0  1  0.00000000  0.00000000  0.01058460  1
  Mn  Mn1  1  0.00000000  0.00000000  0.48941540  1
  Mn  Mn2  1  0.50000000  0.50000000  0.25000000  1
  Rh  Rh0  1  0.50000000  0.50000000  0.75000000  1
