# generated using pymatgen
data_3105_Sb2As4
_symmetry_space_group_name_H-M   'Pnnm'
_cell_length_a   4.34189942
_cell_length_b   5.46456337
_cell_length_c   6.88801339
_cell_angle_alpha   90.00000000
_cell_angle_beta   90.00000000
_cell_angle_gamma   90.00000000
_chemical_formula_structural   Sb2As4
_chemical_formula_sum   'As4 Sb2'
_cell_volume   163.42903192
loop_
 _symmetry_equiv_pos_site_id
 _symmetry_equiv_pos_as_xyz
  1  'x, y, z'
loop_
 _atom_type_symbol
  As
  Sb
loop_
 _atom_site_type_symbol
 _atom_site_label
 _atom_site_symmetry_multiplicity
 _atom_site_fract_x
 _atom_site_fract_y
 _atom_site_fract_z
 _atom_site_occupancy
  As  As0  1  0.00000000  0.17590752  0.60508315  1
  As  As1  1  0.00000000  0.82409248  0.39491685  1
  As  As2  1  0.50000000  0.67590752  0.89491685  1
  As  As3  1  0.50000000  0.32409248  0.10508315  1
  Sb  Sb0  1  0.00000000  0.00000000  0.00000000  1
  Sb  Sb1  1  0.50000000  0.50000000  0.50000000  1
