# generated using pymatgen
data_310_Ba6Sn2
_symmetry_space_group_name_H-M   'Cmcm'
_cell_length_a   8.13548049
_cell_length_b   8.13548049
_cell_length_c   5.84333027
_cell_angle_alpha   90.00000000
_cell_angle_beta   90.00000000
_cell_angle_gamma   78.39082593
_chemical_formula_structural   Ba6Sn2
_chemical_formula_sum   'Ba6 Sn2'
_cell_volume   378.83524171
loop_
 _symmetry_equiv_pos_site_id
 _symmetry_equiv_pos_as_xyz
  1  'x, y, z'
loop_
 _atom_type_symbol
  Ba
  Sn
loop_
 _atom_site_type_symbol
 _atom_site_label
 _atom_site_symmetry_multiplicity
 _atom_site_fract_x
 _atom_site_fract_y
 _atom_site_fract_z
 _atom_site_occupancy
  Ba  Ba0  1  0.80109573  0.19890427  0.75000000  1
  Ba  Ba1  1  0.19890427  0.80109573  0.25000000  1
  Ba  Ba2  1  0.87930880  0.64055789  0.75000000  1
  Ba  Ba3  1  0.12069120  0.35944211  0.25000000  1
  Ba  Ba4  1  0.35944211  0.12069120  0.75000000  1
  Ba  Ba5  1  0.64055789  0.87930880  0.25000000  1
  Sn  Sn0  1  0.57317705  0.42682295  0.25000000  1
  Sn  Sn1  1  0.42682295  0.57317705  0.75000000  1
