# generated using pymatgen
data_3115_RhW3
_symmetry_space_group_name_H-M   'Imm2'
_cell_length_a   5.43176682
_cell_length_b   5.43176682
_cell_length_c   5.43176682
_cell_angle_alpha   151.02892807
_cell_angle_beta   125.11957588
_cell_angle_gamma   63.24674816
_chemical_formula_structural   RhW3
_chemical_formula_sum   'Rh1 W3'
_cell_volume   62.91933177
loop_
 _symmetry_equiv_pos_site_id
 _symmetry_equiv_pos_as_xyz
  1  'x, y, z'
loop_
 _atom_type_symbol
  Rh
  W
loop_
 _atom_site_type_symbol
 _atom_site_label
 _atom_site_symmetry_multiplicity
 _atom_site_fract_x
 _atom_site_fract_y
 _atom_site_fract_z
 _atom_site_occupancy
  Rh  Rh0  1  0.00192660  0.00000000  0.00192660  1
  W  W0  1  0.07283627  0.74343684  0.32939943  1
  W  W1  1  0.50594121  0.50000000  0.00594121  1
  W  W2  1  0.58596259  0.25656316  0.32939943  1
