# generated using pymatgen
data_3116_Ba5Ca
_symmetry_space_group_name_H-M   'P4/mmm'
_cell_length_a   4.59750519
_cell_length_b   4.59750519
_cell_length_c   17.07061564
_cell_angle_alpha   90.00000000
_cell_angle_beta   90.00000000
_cell_angle_gamma   90.00000000
_chemical_formula_structural   Ba5Ca
_chemical_formula_sum   'Ba5 Ca1'
_cell_volume   360.82252412
loop_
 _symmetry_equiv_pos_site_id
 _symmetry_equiv_pos_as_xyz
  1  'x, y, z'
loop_
 _atom_type_symbol
  Ba
  Ca
loop_
 _atom_site_type_symbol
 _atom_site_label
 _atom_site_symmetry_multiplicity
 _atom_site_fract_x
 _atom_site_fract_y
 _atom_site_fract_z
 _atom_site_occupancy
  Ba  Ba0  1  0.00000000  0.00000000  0.85408328  1
  Ba  Ba1  1  0.00000000  0.00000000  0.14591672  1
  Ba  Ba2  1  0.50000000  0.50000000  0.67800842  1
  Ba  Ba3  1  0.50000000  0.50000000  0.32199158  1
  Ba  Ba4  1  0.00000000  0.00000000  0.50000000  1
  Ca  Ca0  1  0.50000000  0.50000000  0.00000000  1
