# generated using pymatgen
data_3117_Ba4Ir12
_symmetry_space_group_name_H-M   'Pnma'
_cell_length_a   6.50462743
_cell_length_b   7.75407682
_cell_length_c   6.87131705
_cell_angle_alpha   90.00000000
_cell_angle_beta   90.00000000
_cell_angle_gamma   90.00000000
_chemical_formula_structural   Ba4Ir12
_chemical_formula_sum   'Ba4 Ir12'
_cell_volume   346.57123450
loop_
 _symmetry_equiv_pos_site_id
 _symmetry_equiv_pos_as_xyz
  1  'x, y, z'
loop_
 _atom_type_symbol
  Ba
  Ir
loop_
 _atom_site_type_symbol
 _atom_site_label
 _atom_site_symmetry_multiplicity
 _atom_site_fract_x
 _atom_site_fract_y
 _atom_site_fract_z
 _atom_site_occupancy
  Ba  Ba0  1  0.62309618  0.03060669  0.75000000  1
  Ba  Ba1  1  0.12309618  0.46939331  0.25000000  1
  Ba  Ba2  1  0.87690382  0.53060669  0.75000000  1
  Ba  Ba3  1  0.37690382  0.96939331  0.25000000  1
  Ir  Ir0  1  0.16883788  0.85260853  0.75000000  1
  Ir  Ir1  1  0.66883788  0.64739147  0.25000000  1
  Ir  Ir2  1  0.33116212  0.35260853  0.75000000  1
  Ir  Ir3  1  0.83116212  0.14739147  0.25000000  1
  Ir  Ir4  1  0.56161975  0.35710475  0.06408527  1
  Ir  Ir5  1  0.06161975  0.14289525  0.93591473  1
  Ir  Ir6  1  0.93838025  0.85710475  0.43591473  1
  Ir  Ir7  1  0.43838025  0.64289525  0.56408527  1
  Ir  Ir8  1  0.43838025  0.64289525  0.93591473  1
  Ir  Ir9  1  0.93838025  0.85710475  0.06408527  1
  Ir  Ir10  1  0.06161975  0.14289525  0.56408527  1
  Ir  Ir11  1  0.56161975  0.35710475  0.43591473  1
