# generated using pymatgen
data_3118_Mo4Ge8
_symmetry_space_group_name_H-M   'Pnma'
_cell_length_a   6.39564696
_cell_length_b   3.47667485
_cell_length_c   8.62508766
_cell_angle_alpha   90.00000000
_cell_angle_beta   90.00000000
_cell_angle_gamma   90.00000000
_chemical_formula_structural   Mo4Ge8
_chemical_formula_sum   'Ge8 Mo4'
_cell_volume   191.78386924
loop_
 _symmetry_equiv_pos_site_id
 _symmetry_equiv_pos_as_xyz
  1  'x, y, z'
loop_
 _atom_type_symbol
  Ge
  Mo
loop_
 _atom_site_type_symbol
 _atom_site_label
 _atom_site_symmetry_multiplicity
 _atom_site_fract_x
 _atom_site_fract_y
 _atom_site_fract_z
 _atom_site_occupancy
  Ge  Ge0  1  0.86419934  0.25000000  0.04077048  1
  Ge  Ge1  1  0.56212928  0.75000000  0.13212578  1
  Ge  Ge2  1  0.06212928  0.75000000  0.36787422  1
  Ge  Ge3  1  0.36419934  0.25000000  0.45922952  1
  Ge  Ge4  1  0.63580066  0.75000000  0.54077048  1
  Ge  Ge5  1  0.93787072  0.25000000  0.63212578  1
  Ge  Ge6  1  0.43787072  0.25000000  0.86787422  1
  Ge  Ge7  1  0.13580066  0.75000000  0.95922952  1
  Mo  Mo0  1  0.24985863  0.25000000  0.17119150  1
  Mo  Mo1  1  0.74985863  0.25000000  0.32880850  1
  Mo  Mo2  1  0.25014137  0.75000000  0.67119150  1
  Mo  Mo3  1  0.75014137  0.75000000  0.82880850  1
