# generated using pymatgen
data_3119_Al2Ba4
_symmetry_space_group_name_H-M   'I4_1/amd'
_cell_length_a   15.62307180
_cell_length_b   15.62307180
_cell_length_c   15.62307180
_cell_angle_alpha   164.51002029
_cell_angle_beta   164.50479285
_cell_angle_gamma   21.97763949
_chemical_formula_structural   Al2Ba4
_chemical_formula_sum   'Al2 Ba4'
_cell_volume   272.03049039
loop_
 _symmetry_equiv_pos_site_id
 _symmetry_equiv_pos_as_xyz
  1  'x, y, z'
loop_
 _atom_type_symbol
  Al
  Ba
loop_
 _atom_site_type_symbol
 _atom_site_label
 _atom_site_symmetry_multiplicity
 _atom_site_fract_x
 _atom_site_fract_y
 _atom_site_fract_z
 _atom_site_occupancy
  Al  Al0  1  0.87468320  0.62468320  0.25000000  1
  Al  Al1  1  0.12531680  0.37531680  0.75000000  1
  Ba  Ba0  1  0.31313918  0.06313918  0.25000000  1
  Ba  Ba1  1  0.68686082  0.93686082  0.75000000  1
  Ba  Ba2  1  0.43631574  0.18631574  0.25000000  1
  Ba  Ba3  1  0.56368426  0.81368426  0.75000000  1
