# generated using pymatgen
data_3123_Au3K
_symmetry_space_group_name_H-M   'Pmm2'
_cell_length_a   2.97929553
_cell_length_b   4.66792735
_cell_length_c   7.27455907
_cell_angle_alpha   90.00000000
_cell_angle_beta   90.00000000
_cell_angle_gamma   90.00000000
_chemical_formula_structural   Au3K
_chemical_formula_sum   'Au3 K1'
_cell_volume   101.16827569
loop_
 _symmetry_equiv_pos_site_id
 _symmetry_equiv_pos_as_xyz
  1  'x, y, z'
loop_
 _atom_type_symbol
  Au
  K
loop_
 _atom_site_type_symbol
 _atom_site_label
 _atom_site_symmetry_multiplicity
 _atom_site_fract_x
 _atom_site_fract_y
 _atom_site_fract_z
 _atom_site_occupancy
  Au  Au0  1  0.00000000  0.00000000  0.91472550  1
  Au  Au1  1  0.50000000  0.00000000  0.56809869  1
  Au  Au2  1  0.50000000  0.50000000  0.88257718  1
  K  K0  1  0.00000000  0.50000000  0.30126530  1
