# generated using pymatgen
data_3135_Nb3W
_symmetry_space_group_name_H-M   'P4/mmm'
_cell_length_a   3.26306630
_cell_length_b   3.26306630
_cell_length_c   6.56517733
_cell_angle_alpha   90.00000000
_cell_angle_beta   90.00000000
_cell_angle_gamma   90.00000000
_chemical_formula_structural   Nb3W
_chemical_formula_sum   'Nb3 W1'
_cell_volume   69.90339316
loop_
 _symmetry_equiv_pos_site_id
 _symmetry_equiv_pos_as_xyz
  1  'x, y, z'
loop_
 _atom_type_symbol
  Nb
  W
loop_
 _atom_site_type_symbol
 _atom_site_label
 _atom_site_symmetry_multiplicity
 _atom_site_fract_x
 _atom_site_fract_y
 _atom_site_fract_z
 _atom_site_occupancy
  Nb  Nb0  1  0.00000000  0.00000000  0.99334144  1
  Nb  Nb1  1  0.00000000  0.00000000  0.50665856  1
  Nb  Nb2  1  0.50000000  0.50000000  0.25000000  1
  W  W0  1  0.50000000  0.50000000  0.75000000  1
