# generated using pymatgen
data_3146_Ba2W2
_symmetry_space_group_name_H-M   'Cmcm'
_cell_length_a   9.84089845
_cell_length_b   9.84089845
_cell_length_c   3.62750882
_cell_angle_alpha   90.00000000
_cell_angle_beta   90.00000000
_cell_angle_gamma   159.78032955
_chemical_formula_structural   Ba2W2
_chemical_formula_sum   'Ba2 W2'
_cell_volume   121.41639027
loop_
 _symmetry_equiv_pos_site_id
 _symmetry_equiv_pos_as_xyz
  1  'x, y, z'
loop_
 _atom_type_symbol
  Ba
  W
loop_
 _atom_site_type_symbol
 _atom_site_label
 _atom_site_symmetry_multiplicity
 _atom_site_fract_x
 _atom_site_fract_y
 _atom_site_fract_z
 _atom_site_occupancy
  Ba  Ba0  1  0.90479773  0.09520227  0.75000000  1
  Ba  Ba1  1  0.09520227  0.90479773  0.25000000  1
  W  W0  1  0.72826207  0.27173793  0.75000000  1
  W  W1  1  0.27173793  0.72826207  0.25000000  1
