# generated using pymatgen
data_3147_Pt6As2
_symmetry_space_group_name_H-M   'Cmcm'
_cell_length_a   5.63965653
_cell_length_b   5.63965653
_cell_length_c   4.10061234
_cell_angle_alpha   90.00000000
_cell_angle_beta   90.00000000
_cell_angle_gamma   92.70284420
_chemical_formula_structural   Pt6As2
_chemical_formula_sum   'As2 Pt6'
_cell_volume   130.27786074
loop_
 _symmetry_equiv_pos_site_id
 _symmetry_equiv_pos_as_xyz
  1  'x, y, z'
loop_
 _atom_type_symbol
  As
  Pt
loop_
 _atom_site_type_symbol
 _atom_site_label
 _atom_site_symmetry_multiplicity
 _atom_site_fract_x
 _atom_site_fract_y
 _atom_site_fract_z
 _atom_site_occupancy
  As  As0  1  0.33129390  0.33129390  0.25000000  1
  As  As1  1  0.66870610  0.66870610  0.75000000  1
  Pt  Pt0  1  0.86996086  0.86996086  0.25000000  1
  Pt  Pt1  1  0.13003914  0.13003914  0.75000000  1
  Pt  Pt2  1  0.37196784  0.86837237  0.25000000  1
  Pt  Pt3  1  0.62803216  0.13162763  0.75000000  1
  Pt  Pt4  1  0.13162763  0.62803216  0.75000000  1
  Pt  Pt5  1  0.86837237  0.37196784  0.25000000  1
