# generated using pymatgen
data_3148_Al2Pt2
_symmetry_space_group_name_H-M   'Pmma'
_cell_length_a   4.52256997
_cell_length_b   2.81981721
_cell_length_c   4.61900919
_cell_angle_alpha   89.97513977
_cell_angle_beta   90.00000000
_cell_angle_gamma   90.00000000
_chemical_formula_structural   Al2Pt2
_chemical_formula_sum   'Al2 Pt2'
_cell_volume   58.90539021
loop_
 _symmetry_equiv_pos_site_id
 _symmetry_equiv_pos_as_xyz
  1  'x, y, z'
loop_
 _atom_type_symbol
  Al
  Pt
loop_
 _atom_site_type_symbol
 _atom_site_label
 _atom_site_symmetry_multiplicity
 _atom_site_fract_x
 _atom_site_fract_y
 _atom_site_fract_z
 _atom_site_occupancy
  Al  Al0  1  0.00000000  0.87568127  0.09316806  1
  Al  Al1  1  0.50000000  0.87431873  0.65683194  1
  Pt  Pt0  1  0.00000000  0.37426004  0.59362061  1
  Pt  Pt1  1  0.50000000  0.37573996  0.15637939  1
