# generated using pymatgen
data_3156_Ba2Ir2
_symmetry_space_group_name_H-M   'Cmcm'
_cell_length_a   6.24976872
_cell_length_b   6.24976872
_cell_length_c   5.74623062
_cell_angle_alpha   90.00000000
_cell_angle_beta   90.00000000
_cell_angle_gamma   150.43150267
_chemical_formula_structural   Ba2Ir2
_chemical_formula_sum   'Ba2 Ir2'
_cell_volume   110.75572253
loop_
 _symmetry_equiv_pos_site_id
 _symmetry_equiv_pos_as_xyz
  1  'x, y, z'
loop_
 _atom_type_symbol
  Ba
  Ir
loop_
 _atom_site_type_symbol
 _atom_site_label
 _atom_site_symmetry_multiplicity
 _atom_site_fract_x
 _atom_site_fract_y
 _atom_site_fract_z
 _atom_site_occupancy
  Ba  Ba0  1  0.62922476  0.37077524  0.75000000  1
  Ba  Ba1  1  0.37077524  0.62922476  0.25000000  1
  Ir  Ir0  1  0.89402912  0.10597088  0.75000000  1
  Ir  Ir1  1  0.10597088  0.89402912  0.25000000  1
