# generated using pymatgen
data_3157_Rh6W4
_symmetry_space_group_name_H-M   'Fdd2'
_cell_length_a   5.27125690
_cell_length_b   5.27125690
_cell_length_c   7.08477264
_cell_angle_alpha   81.10823939
_cell_angle_beta   81.10823939
_cell_angle_gamma   125.76827198
_chemical_formula_structural   Rh6W4
_chemical_formula_sum   'Rh6 W4'
_cell_volume   150.26353011
loop_
 _symmetry_equiv_pos_site_id
 _symmetry_equiv_pos_as_xyz
  1  'x, y, z'
loop_
 _atom_type_symbol
  Rh
  W
loop_
 _atom_site_type_symbol
 _atom_site_label
 _atom_site_symmetry_multiplicity
 _atom_site_fract_x
 _atom_site_fract_y
 _atom_site_fract_z
 _atom_site_occupancy
  Rh  Rh0  1  0.65334458  0.73981975  0.79330406  1
  Rh  Rh1  1  0.53312381  0.44664864  0.20669594  1
  Rh  Rh2  1  0.19664864  0.78312381  0.70669594  1
  Rh  Rh3  1  0.48981975  0.90334458  0.29330406  1
  Rh  Rh4  1  0.07514885  0.07514885  0.00000000  1
  Rh  Rh5  1  0.82514885  0.32514885  0.50000000  1
  W  W0  1  0.63798336  0.20230629  0.89809311  1
  W  W1  1  0.10039940  0.53607647  0.10190689  1
  W  W2  1  0.28607647  0.35039940  0.60190689  1
  W  W3  1  0.95230629  0.88798336  0.39809311  1
