# generated using pymatgen
data_3159_K4Sn
_symmetry_space_group_name_H-M   'Im -3 m'
_cell_length_a   7.33204054
_cell_length_b   7.33204054
_cell_length_c   7.33204054
_cell_angle_alpha   109.47122063
_cell_angle_beta   109.47122063
_cell_angle_gamma   109.47122063
_chemical_formula_structural   K4Sn
_chemical_formula_sum   'K4 Sn1'
_cell_volume   303.42592331
loop_
 _symmetry_equiv_pos_site_id
 _symmetry_equiv_pos_as_xyz
  1  'x, y, z'
loop_
 _atom_type_symbol
  K
  Sn
loop_
 _atom_site_type_symbol
 _atom_site_label
 _atom_site_symmetry_multiplicity
 _atom_site_fract_x
 _atom_site_fract_y
 _atom_site_fract_z
 _atom_site_occupancy
  K  K0  1  0.00000000  0.50000000  0.00000000  1
  K  K1  1  0.50000000  0.50000000  0.50000000  1
  K  K2  1  0.00000000  0.00000000  0.50000000  1
  K  K3  1  0.50000000  0.00000000  0.00000000  1
  Sn  Sn0  1  0.00000000  0.00000000  0.00000000  1
