# generated using pymatgen
data_3160_Ca10Ge6
_symmetry_space_group_name_H-M   'I4/mcm'
_cell_length_a   8.95915426
_cell_length_b   8.95915390
_cell_length_c   8.95927017
_cell_angle_alpha   96.51823465
_cell_angle_beta   96.51824216
_cell_angle_gamma   140.62104640
_chemical_formula_structural   Ca10Ge6
_chemical_formula_sum   'Ca10 Ge6'
_cell_volume   429.57167924
loop_
 _symmetry_equiv_pos_site_id
 _symmetry_equiv_pos_as_xyz
  1  'x, y, z'
loop_
 _atom_type_symbol
  Ca
  Ge
loop_
 _atom_site_type_symbol
 _atom_site_label
 _atom_site_symmetry_multiplicity
 _atom_site_fract_x
 _atom_site_fract_y
 _atom_site_fract_z
 _atom_site_occupancy
  Ca  Ca0  1  0.75003843  0.25003841  0.49932847  1
  Ca  Ca1  1  0.25001622  0.75001621  0.49932772  1
  Ca  Ca2  1  0.79014973  0.91640764  0.70653259  1
  Ca  Ca3  1  0.20966928  0.08325225  0.29289161  1
  Ca  Ca4  1  0.70962336  0.41639522  0.12579966  1
  Ca  Ca5  1  0.29010048  0.58324406  0.87312816  1
  Ca  Ca6  1  0.58325220  0.70966924  0.29289160  1
  Ca  Ca7  1  0.41640769  0.29014978  0.70653261  1
  Ca  Ca8  1  0.08324411  0.79010050  0.87312815  1
  Ca  Ca9  1  0.91639514  0.20962331  0.12579967  1
  Ge  Ge0  1  0.25006899  0.25006887  0.99991255  1
  Ge  Ge1  1  0.75006928  0.75006937  0.99991254  1
  Ge  Ge2  1  0.34454528  0.84454526  0.18853298  1
  Ge  Ge3  1  0.65560574  0.15560579  0.81065042  1
  Ge  Ge4  1  0.15615052  0.34500602  0.49965351  1
  Ge  Ge5  1  0.84500594  0.65615045  0.49965348  1
