# generated using pymatgen
data_3161_KRh
_symmetry_space_group_name_H-M   'P-6m2'
_cell_length_a   2.93078227
_cell_length_b   2.93082606
_cell_length_c   5.47229268
_cell_angle_alpha   90.00000000
_cell_angle_beta   90.00000000
_cell_angle_gamma   119.99950560
_chemical_formula_structural   KRh
_chemical_formula_sum   'K1 Rh1'
_cell_volume   40.70762012
loop_
 _symmetry_equiv_pos_site_id
 _symmetry_equiv_pos_as_xyz
  1  'x, y, z'
loop_
 _atom_type_symbol
  K
  Rh
loop_
 _atom_site_type_symbol
 _atom_site_label
 _atom_site_symmetry_multiplicity
 _atom_site_fract_x
 _atom_site_fract_y
 _atom_site_fract_z
 _atom_site_occupancy
  K  K0  1  0.66666450  0.33332851  0.75000006  1
  Rh  Rh0  1  0.33333486  0.66666983  0.24999941  1
