# generated using pymatgen
data_3164_Pb4Ta2
_symmetry_space_group_name_H-M   'I4/mcm'
_cell_length_a   5.83298757
_cell_length_b   5.83298757
_cell_length_c   5.83298757
_cell_angle_alpha   103.61937149
_cell_angle_beta   103.61937149
_cell_angle_gamma   121.94186809
_chemical_formula_structural   Pb4Ta2
_chemical_formula_sum   'Pb4 Ta2'
_cell_volume   147.25353341
loop_
 _symmetry_equiv_pos_site_id
 _symmetry_equiv_pos_as_xyz
  1  'x, y, z'
loop_
 _atom_type_symbol
  Pb
  Ta
loop_
 _atom_site_type_symbol
 _atom_site_label
 _atom_site_symmetry_multiplicity
 _atom_site_fract_x
 _atom_site_fract_y
 _atom_site_fract_z
 _atom_site_occupancy
  Pb  Pb0  1  0.33886808  0.16113192  0.50000000  1
  Pb  Pb1  1  0.66113192  0.83886808  0.50000000  1
  Pb  Pb2  1  0.16113192  0.66113192  0.82226384  1
  Pb  Pb3  1  0.83886808  0.33886808  0.17773616  1
  Ta  Ta0  1  0.75000000  0.75000000  0.00000000  1
  Ta  Ta1  1  0.25000000  0.25000000  0.00000000  1
