# generated using pymatgen
data_3165_Na2Rh4
_symmetry_space_group_name_H-M   'Pnnm'
_cell_length_a   4.65173147
_cell_length_b   2.66441064
_cell_length_c   7.73095382
_cell_angle_alpha   90.00000000
_cell_angle_beta   90.00000000
_cell_angle_gamma   90.00000000
_chemical_formula_structural   Na2Rh4
_chemical_formula_sum   'Na2 Rh4'
_cell_volume   95.81839118
loop_
 _symmetry_equiv_pos_site_id
 _symmetry_equiv_pos_as_xyz
  1  'x, y, z'
loop_
 _atom_type_symbol
  Na
  Rh
loop_
 _atom_site_type_symbol
 _atom_site_label
 _atom_site_symmetry_multiplicity
 _atom_site_fract_x
 _atom_site_fract_y
 _atom_site_fract_z
 _atom_site_occupancy
  Na  Na0  1  0.00000000  0.00000000  0.00000000  1
  Na  Na1  1  0.50000000  0.50000000  0.50000000  1
  Rh  Rh0  1  0.00000000  0.23292757  0.65804986  1
  Rh  Rh1  1  0.00000000  0.76707243  0.34195014  1
  Rh  Rh2  1  0.50000000  0.73292757  0.84195014  1
  Rh  Rh3  1  0.50000000  0.26707243  0.15804986  1
