# generated using pymatgen
data_3168_Ga10Mn4
_symmetry_space_group_name_H-M   'P4/mbm'
_cell_length_a   8.79853791
_cell_length_b   8.79853791
_cell_length_c   2.69044192
_cell_angle_alpha   90.00000000
_cell_angle_beta   90.00000000
_cell_angle_gamma   90.00000000
_chemical_formula_structural   Ga10Mn4
_chemical_formula_sum   'Ga10 Mn4'
_cell_volume   208.27859548
loop_
 _symmetry_equiv_pos_site_id
 _symmetry_equiv_pos_as_xyz
  1  'x, y, z'
loop_
 _atom_type_symbol
  Ga
  Mn
loop_
 _atom_site_type_symbol
 _atom_site_label
 _atom_site_symmetry_multiplicity
 _atom_site_fract_x
 _atom_site_fract_y
 _atom_site_fract_z
 _atom_site_occupancy
  Ga  Ga0  1  0.50000000  0.00000000  0.00000000  1
  Ga  Ga1  1  0.00000000  0.50000000  0.00000000  1
  Ga  Ga2  1  0.20575698  0.06458268  0.00000000  1
  Ga  Ga3  1  0.79424302  0.93541732  0.00000000  1
  Ga  Ga4  1  0.93541732  0.20575698  0.00000000  1
  Ga  Ga5  1  0.06458268  0.79424302  0.00000000  1
  Ga  Ga6  1  0.29424302  0.56458268  0.00000000  1
  Ga  Ga7  1  0.70575698  0.43541732  0.00000000  1
  Ga  Ga8  1  0.56458268  0.70575698  0.00000000  1
  Ga  Ga9  1  0.43541732  0.29424302  0.00000000  1
  Mn  Mn0  1  0.67828906  0.17828906  0.50000000  1
  Mn  Mn1  1  0.32171094  0.82171094  0.50000000  1
  Mn  Mn2  1  0.82171094  0.67828906  0.50000000  1
  Mn  Mn3  1  0.17828906  0.32171094  0.50000000  1
