# generated using pymatgen
data_3174_Ga3Pd
_symmetry_space_group_name_H-M   'Imm2'
_cell_length_a   5.07626138
_cell_length_b   5.07626138
_cell_length_c   5.07626138
_cell_angle_alpha   141.70809037
_cell_angle_beta   120.78028804
_cell_angle_gamma   72.74582303
_chemical_formula_structural   Ga3Pd
_chemical_formula_sum   'Ga3 Pd1'
_cell_volume   68.27014046
loop_
 _symmetry_equiv_pos_site_id
 _symmetry_equiv_pos_as_xyz
  1  'x, y, z'
loop_
 _atom_type_symbol
  Ga
  Pd
loop_
 _atom_site_type_symbol
 _atom_site_label
 _atom_site_symmetry_multiplicity
 _atom_site_fract_x
 _atom_site_fract_y
 _atom_site_fract_z
 _atom_site_occupancy
  Ga  Ga0  1  0.73114652  0.72494107  0.00620545  1
  Ga  Ga1  1  0.28126438  0.27505893  0.00620545  1
  Ga  Ga2  1  0.11508792  0.50000000  0.61508792  1
  Pd  Pd0  1  0.70583118  1.00000000  0.70583118  1
