# generated using pymatgen
data_3176_Sn4Br8
_symmetry_space_group_name_H-M   'Pa -3'
_cell_length_a   7.39372819
_cell_length_b   7.39372819
_cell_length_c   7.39372819
_cell_angle_alpha   90.00000000
_cell_angle_beta   90.00000000
_cell_angle_gamma   90.00000000
_chemical_formula_structural   Sn4Br8
_chemical_formula_sum   'Br8 Sn4'
_cell_volume   404.19454006
loop_
 _symmetry_equiv_pos_site_id
 _symmetry_equiv_pos_as_xyz
  1  'x, y, z'
loop_
 _atom_type_symbol
  Br
  Sn
loop_
 _atom_site_type_symbol
 _atom_site_label
 _atom_site_symmetry_multiplicity
 _atom_site_fract_x
 _atom_site_fract_y
 _atom_site_fract_z
 _atom_site_occupancy
  Br  Br0  1  0.65546723  0.65546723  0.34453277  1
  Br  Br1  1  0.34453277  0.34453277  0.65546723  1
  Br  Br2  1  0.15546723  0.84453277  0.65546723  1
  Br  Br3  1  0.84453277  0.15546723  0.34453277  1
  Br  Br4  1  0.34453277  0.15546723  0.15546723  1
  Br  Br5  1  0.65546723  0.84453277  0.84453277  1
  Br  Br6  1  0.84453277  0.34453277  0.84453277  1
  Br  Br7  1  0.15546723  0.65546723  0.15546723  1
  Sn  Sn0  1  0.00000000  0.00000000  0.00000000  1
  Sn  Sn1  1  0.50000000  0.50000000  0.00000000  1
  Sn  Sn2  1  0.50000000  0.00000000  0.50000000  1
  Sn  Sn3  1  0.00000000  0.50000000  0.50000000  1
