# generated using pymatgen
data_3177_Pt2V2
_symmetry_space_group_name_H-M   'Cmcm'
_cell_length_a   2.72403373
_cell_length_b   5.29768917
_cell_length_c   4.15044077
_cell_angle_alpha   90.00000000
_cell_angle_beta   90.00000000
_cell_angle_gamma   104.89784281
_chemical_formula_structural   Pt2V2
_chemical_formula_sum   'Pt2 V2'
_cell_volume   57.88202231
loop_
 _symmetry_equiv_pos_site_id
 _symmetry_equiv_pos_as_xyz
  1  'x, y, z'
loop_
 _atom_type_symbol
  Pt
  V
loop_
 _atom_site_type_symbol
 _atom_site_label
 _atom_site_symmetry_multiplicity
 _atom_site_fract_x
 _atom_site_fract_y
 _atom_site_fract_z
 _atom_site_occupancy
  Pt  Pt0  1  0.16485817  0.32971634  0.25000000  1
  Pt  Pt1  1  0.83514183  0.67028366  0.75000000  1
  V  V0  1  0.42961472  0.85922944  0.25000000  1
  V  V1  1  0.57038528  0.14077056  0.75000000  1
