# generated using pymatgen
data_3185_CaSb
_symmetry_space_group_name_H-M   'P-6m2'
_cell_length_a   4.77348790
_cell_length_b   4.77336872
_cell_length_c   3.42858596
_cell_angle_alpha   90.00000000
_cell_angle_beta   90.00000000
_cell_angle_gamma   120.00081127
_chemical_formula_structural   CaSb
_chemical_formula_sum   'Ca1 Sb1'
_cell_volume   67.65547269
loop_
 _symmetry_equiv_pos_site_id
 _symmetry_equiv_pos_as_xyz
  1  'x, y, z'
loop_
 _atom_type_symbol
  Ca
  Sb
loop_
 _atom_site_type_symbol
 _atom_site_label
 _atom_site_symmetry_multiplicity
 _atom_site_fract_x
 _atom_site_fract_y
 _atom_site_fract_z
 _atom_site_occupancy
  Ca  Ca0  1  0.66667088  0.33334017  0.74999884  1
  Sb  Sb0  1  0.33332916  0.66665854  0.24999961  1
