# generated using pymatgen
data_3187_Al3Br
_symmetry_space_group_name_H-M   'Imm2'
_cell_length_a   6.39655661
_cell_length_b   6.39655661
_cell_length_c   6.39655661
_cell_angle_alpha   152.36838595
_cell_angle_beta   135.05258889
_cell_angle_gamma   53.57975071
_chemical_formula_structural   Al3Br
_chemical_formula_sum   'Al3 Br1'
_cell_volume   85.30656672
loop_
 _symmetry_equiv_pos_site_id
 _symmetry_equiv_pos_as_xyz
  1  'x, y, z'
loop_
 _atom_type_symbol
  Al
  Br
loop_
 _atom_site_type_symbol
 _atom_site_label
 _atom_site_symmetry_multiplicity
 _atom_site_fract_x
 _atom_site_fract_y
 _atom_site_fract_z
 _atom_site_occupancy
  Al  Al0  1  0.83956375  0.79146441  0.04809935  1
  Al  Al1  1  0.25663494  0.20853559  0.04809935  1
  Al  Al2  1  0.15139227  0.50000000  0.65139227  1
  Br  Br0  1  0.58573904  0.00000000  0.58573904  1
