# generated using pymatgen
data_3199_NbBr3
_symmetry_space_group_name_H-M   'Immm'
_cell_length_a   7.34710659
_cell_length_b   7.34710659
_cell_length_c   7.34710659
_cell_angle_alpha   154.00779946
_cell_angle_beta   139.20697190
_cell_angle_gamma   49.00992604
_chemical_formula_structural   NbBr3
_chemical_formula_sum   'Br3 Nb1'
_cell_volume   113.13481064
loop_
 _symmetry_equiv_pos_site_id
 _symmetry_equiv_pos_as_xyz
  1  'x, y, z'
loop_
 _atom_type_symbol
  Br
  Nb
loop_
 _atom_site_type_symbol
 _atom_site_label
 _atom_site_symmetry_multiplicity
 _atom_site_fract_x
 _atom_site_fract_y
 _atom_site_fract_z
 _atom_site_occupancy
  Br  Br0  1  0.09331714  0.09331714  1.00000000  1
  Br  Br1  1  0.75000000  0.25000000  0.50000000  1
  Br  Br2  1  0.40668286  0.40668286  0.00000000  1
  Nb  Nb0  1  0.25000000  0.75000000  0.50000000  1
