# generated using pymatgen
data_31_CsNi
_symmetry_space_group_name_H-M   'Amm2'
_cell_length_a   4.62327300
_cell_length_b   4.56156197
_cell_length_c   4.91666600
_cell_angle_alpha   90.00000000
_cell_angle_beta   90.00000000
_cell_angle_gamma   120.44852967
_chemical_formula_structural   CsNi
_chemical_formula_sum   'Cs1 Ni1'
_cell_volume   89.38893979
loop_
 _symmetry_equiv_pos_site_id
 _symmetry_equiv_pos_as_xyz
  1  'x, y, z'
loop_
 _atom_type_symbol
  Cs
  Ni
loop_
 _atom_site_type_symbol
 _atom_site_label
 _atom_site_symmetry_multiplicity
 _atom_site_fract_x
 _atom_site_fract_y
 _atom_site_fract_z
 _atom_site_occupancy
  Cs  Cs0  1  0.66756158  0.33512163  0.75000015  1
  Ni  Ni0  1  0.33244003  0.66488020  0.24999869  1
