# generated using pymatgen
data_3200_Nb6Br4
_symmetry_space_group_name_H-M   'R -3 c'
_cell_length_a   6.87775861
_cell_length_b   6.87775926
_cell_length_c   6.17644575
_cell_angle_alpha   123.83293798
_cell_angle_beta   56.16706193
_cell_angle_gamma   120.00000172
_chemical_formula_structural   Nb6Br4
_chemical_formula_sum   'Br4 Nb6'
_cell_volume   193.80305667
loop_
 _symmetry_equiv_pos_site_id
 _symmetry_equiv_pos_as_xyz
  1  'x, y, z'
loop_
 _atom_type_symbol
  Br
  Nb
loop_
 _atom_site_type_symbol
 _atom_site_label
 _atom_site_symmetry_multiplicity
 _atom_site_fract_x
 _atom_site_fract_y
 _atom_site_fract_z
 _atom_site_occupancy
  Br  Br0  1  0.60355955  0.39644045  0.18932135  1
  Br  Br1  1  0.89644045  0.10355955  0.31067865  1
  Br  Br2  1  0.10355955  0.89644045  0.68932135  1
  Br  Br3  1  0.39644045  0.60355955  0.81067865  1
  Nb  Nb0  1  0.25000000  0.00125072  0.25000000  1
  Nb  Nb1  1  0.99874928  0.49874928  0.25000000  1
  Nb  Nb2  1  0.50125072  0.75000000  0.25000000  1
  Nb  Nb3  1  0.49874928  0.25000000  0.75000000  1
  Nb  Nb4  1  0.00125072  0.50125072  0.75000000  1
  Nb  Nb5  1  0.75000000  0.99874928  0.75000000  1
