# generated using pymatgen
data_3203_InSb2
_symmetry_space_group_name_H-M   'I4/mmm'
_cell_length_a   7.69679560
_cell_length_b   7.69679560
_cell_length_c   7.69679560
_cell_angle_alpha   154.65832340
_cell_angle_beta   154.65832340
_cell_angle_gamma   36.14344331
_chemical_formula_structural   InSb2
_chemical_formula_sum   'In1 Sb2'
_cell_volume   83.42440024
loop_
 _symmetry_equiv_pos_site_id
 _symmetry_equiv_pos_as_xyz
  1  'x, y, z'
loop_
 _atom_type_symbol
  In
  Sb
loop_
 _atom_site_type_symbol
 _atom_site_label
 _atom_site_symmetry_multiplicity
 _atom_site_fract_x
 _atom_site_fract_y
 _atom_site_fract_z
 _atom_site_occupancy
  In  In0  1  0.50000000  0.50000000  0.00000000  1
  Sb  Sb0  1  0.17040805  0.17040805  0.00000000  1
  Sb  Sb1  1  0.82959195  0.82959195  0.00000000  1
