# generated using pymatgen
data_3207_Na2P2
_symmetry_space_group_name_H-M   'Cmcm'
_cell_length_a   3.74606104
_cell_length_b   4.50858266
_cell_length_c   5.52979680
_cell_angle_alpha   66.29951702
_cell_angle_beta   90.00000000
_cell_angle_gamma   90.00000000
_chemical_formula_structural   Na2P2
_chemical_formula_sum   'Na2 P2'
_cell_volume   85.51807662
loop_
 _symmetry_equiv_pos_site_id
 _symmetry_equiv_pos_as_xyz
  1  'x, y, z'
loop_
 _atom_type_symbol
  Na
  P
loop_
 _atom_site_type_symbol
 _atom_site_label
 _atom_site_symmetry_multiplicity
 _atom_site_fract_x
 _atom_site_fract_y
 _atom_site_fract_z
 _atom_site_occupancy
  Na  Na0  1  0.00000000  0.01336422  0.09094524  1
  Na  Na1  1  0.50000000  0.73663578  0.65905476  1
  P  P0  1  0.00000000  0.31369590  0.50245917  1
  P  P1  1  0.50000000  0.43630410  0.24754083  1
