# generated using pymatgen
data_3223_ThGe
_symmetry_space_group_name_H-M   'R -3 m'
_cell_length_a   4.45747392
_cell_length_b   4.45747392
_cell_length_c   4.45747351
_cell_angle_alpha   54.05284100
_cell_angle_beta   54.05284100
_cell_angle_gamma   54.05284944
_chemical_formula_structural   ThGe
_chemical_formula_sum   'Ge1 Th1'
_cell_volume   53.92785197
loop_
 _symmetry_equiv_pos_site_id
 _symmetry_equiv_pos_as_xyz
  1  'x, y, z'
loop_
 _atom_type_symbol
  Ge
  Th
loop_
 _atom_site_type_symbol
 _atom_site_label
 _atom_site_symmetry_multiplicity
 _atom_site_fract_x
 _atom_site_fract_y
 _atom_site_fract_z
 _atom_site_occupancy
  Ge  Ge0  1  0.00000000  0.00000000  0.00000000  1
  Th  Th0  1  0.50000000  0.50000000  0.50000000  1
