# generated using pymatgen
data_322_Nb4V8
_symmetry_space_group_name_H-M   'I4_1/amd'
_cell_length_a   14.04621051
_cell_length_b   14.04621051
_cell_length_c   14.04621051
_cell_angle_alpha   165.11091810
_cell_angle_beta   165.11091810
_cell_angle_gamma   21.11645295
_chemical_formula_structural   Nb4V8
_chemical_formula_sum   'Nb4 V8'
_cell_volume   182.93923090
loop_
 _symmetry_equiv_pos_site_id
 _symmetry_equiv_pos_as_xyz
  1  'x, y, z'
loop_
 _atom_type_symbol
  Nb
  V
loop_
 _atom_site_type_symbol
 _atom_site_label
 _atom_site_symmetry_multiplicity
 _atom_site_fract_x
 _atom_site_fract_y
 _atom_site_fract_z
 _atom_site_occupancy
  Nb  Nb0  1  0.91803354  0.91803355  0.00000000  1
  Nb  Nb1  1  0.08196646  0.08196645  0.00000000  1
  Nb  Nb2  1  0.16803354  0.66803355  0.50000000  1
  Nb  Nb3  1  0.33196646  0.83196645  0.50000000  1
  V  V0  1  0.75034183  0.75034183  0.00000000  1
  V  V1  1  0.24965817  0.24965817  0.00000000  1
  V  V2  1  0.00034183  0.50034183  0.50000000  1
  V  V3  1  0.49965817  0.99965817  0.50000000  1
  V  V4  1  0.58106299  0.58106300  0.00000000  1
  V  V5  1  0.41893701  0.41893700  0.00000000  1
  V  V6  1  0.83106299  0.33106300  0.50000000  1
  V  V7  1  0.66893701  0.16893700  0.50000000  1
