# generated using pymatgen
data_3233_WAs3
_symmetry_space_group_name_H-M   'Imm2'
_cell_length_a   5.13287137
_cell_length_b   5.13287137
_cell_length_c   5.13287137
_cell_angle_alpha   141.56777535
_cell_angle_beta   117.84659721
_cell_angle_gamma   75.49586483
_chemical_formula_structural   WAs3
_chemical_formula_sum   'As3 W1'
_cell_volume   72.66664674
loop_
 _symmetry_equiv_pos_site_id
 _symmetry_equiv_pos_as_xyz
  1  'x, y, z'
loop_
 _atom_type_symbol
  As
  W
loop_
 _atom_site_type_symbol
 _atom_site_label
 _atom_site_symmetry_multiplicity
 _atom_site_fract_x
 _atom_site_fract_y
 _atom_site_fract_z
 _atom_site_occupancy
  As  As0  1  0.66711751  0.68926480  0.97785271  1
  As  As1  1  0.28858791  0.31073520  0.97785271  1
  As  As2  1  0.11673852  0.50000000  0.61673852  1
  W  W0  1  0.76088607  0.00000000  0.76088607  1
