# generated using pymatgen
data_3236_Mn2Sb6
_symmetry_space_group_name_H-M   'I4/mmm'
_cell_length_a   11.16709977
_cell_length_b   11.16709977
_cell_length_c   11.16709977
_cell_angle_alpha   158.22022176
_cell_angle_beta   158.22022176
_cell_angle_gamma   30.99261518
_chemical_formula_structural   Mn2Sb6
_chemical_formula_sum   'Mn2 Sb6'
_cell_volume   191.58664909
loop_
 _symmetry_equiv_pos_site_id
 _symmetry_equiv_pos_as_xyz
  1  'x, y, z'
loop_
 _atom_type_symbol
  Mn
  Sb
loop_
 _atom_site_type_symbol
 _atom_site_label
 _atom_site_symmetry_multiplicity
 _atom_site_fract_x
 _atom_site_fract_y
 _atom_site_fract_z
 _atom_site_occupancy
  Mn  Mn0  1  0.67660086  0.67660086  0.00000000  1
  Mn  Mn1  1  0.32339914  0.32339914  0.00000000  1
  Sb  Sb0  1  0.50000000  0.00000000  0.50000000  1
  Sb  Sb1  1  0.00000000  0.50000000  0.50000000  1
  Sb  Sb2  1  0.25000000  0.75000000  0.50000000  1
  Sb  Sb3  1  0.75000000  0.25000000  0.50000000  1
  Sb  Sb4  1  0.87889253  0.87889253  0.00000000  1
  Sb  Sb5  1  0.12110747  0.12110747  0.00000000  1
