# generated using pymatgen
data_3237_Cu2Fe
_symmetry_space_group_name_H-M   'I4/mmm'
_cell_length_a   2.55997832
_cell_length_b   5.71658810
_cell_length_c   2.55997832
_cell_angle_alpha   77.06133371
_cell_angle_beta   90.00000000
_cell_angle_gamma   102.93866629
_chemical_formula_structural   Cu2Fe
_chemical_formula_sum   'Cu2 Fe1'
_cell_volume   35.53576759
loop_
 _symmetry_equiv_pos_site_id
 _symmetry_equiv_pos_as_xyz
  1  'x, y, z'
loop_
 _atom_type_symbol
  Cu
  Fe
loop_
 _atom_site_type_symbol
 _atom_site_label
 _atom_site_symmetry_multiplicity
 _atom_site_fract_x
 _atom_site_fract_y
 _atom_site_fract_z
 _atom_site_occupancy
  Cu  Cu0  1  0.33261421  0.66522843  0.66738579  1
  Cu  Cu1  1  0.66738579  0.33477157  0.33261421  1
  Fe  Fe0  1  0.00000000  0.00000000  0.00000000  1
