# generated using pymatgen
data_3239_Pb3V
_symmetry_space_group_name_H-M   'Immm'
_cell_length_a   7.49256498
_cell_length_b   7.49256498
_cell_length_c   7.49256498
_cell_angle_alpha   155.53464984
_cell_angle_beta   142.30477379
_cell_angle_gamma   45.45362208
_chemical_formula_structural   Pb3V
_chemical_formula_sum   'Pb3 V1'
_cell_volume   106.22285622
loop_
 _symmetry_equiv_pos_site_id
 _symmetry_equiv_pos_as_xyz
  1  'x, y, z'
loop_
 _atom_type_symbol
  Pb
  V
loop_
 _atom_site_type_symbol
 _atom_site_label
 _atom_site_symmetry_multiplicity
 _atom_site_fract_x
 _atom_site_fract_y
 _atom_site_fract_z
 _atom_site_occupancy
  Pb  Pb0  1  0.06663024  0.06663024  0.00000000  1
  Pb  Pb1  1  0.75000000  0.25000000  0.50000000  1
  Pb  Pb2  1  0.43336976  0.43336976  1.00000000  1
  V  V0  1  0.25000000  0.75000000  0.50000000  1
