# generated using pymatgen
data_3242_K2Nb6
_symmetry_space_group_name_H-M   'Cmcm'
_cell_length_a   6.50738070
_cell_length_b   6.50738070
_cell_length_c   4.69070081
_cell_angle_alpha   90.00000000
_cell_angle_beta   90.00000000
_cell_angle_gamma   105.82015915
_chemical_formula_structural   K2Nb6
_chemical_formula_sum   'K2 Nb6'
_cell_volume   191.10866048
loop_
 _symmetry_equiv_pos_site_id
 _symmetry_equiv_pos_as_xyz
  1  'x, y, z'
loop_
 _atom_type_symbol
  K
  Nb
loop_
 _atom_site_type_symbol
 _atom_site_label
 _atom_site_symmetry_multiplicity
 _atom_site_fract_x
 _atom_site_fract_y
 _atom_site_fract_z
 _atom_site_occupancy
  K  K0  1  0.59910994  0.40089006  0.75000000  1
  K  K1  1  0.40089006  0.59910994  0.25000000  1
  Nb  Nb0  1  0.17788948  0.82211052  0.75000000  1
  Nb  Nb1  1  0.82211052  0.17788948  0.25000000  1
  Nb  Nb2  1  0.75345605  0.93463572  0.75000000  1
  Nb  Nb3  1  0.24654395  0.06536428  0.25000000  1
  Nb  Nb4  1  0.93463572  0.75345605  0.25000000  1
  Nb  Nb5  1  0.06536428  0.24654395  0.75000000  1
