# generated using pymatgen
data_3243_AuMn
_symmetry_space_group_name_H-M   'P-6m2'
_cell_length_a   2.90262638
_cell_length_b   2.90261197
_cell_length_c   4.46359866
_cell_angle_alpha   90.00000000
_cell_angle_beta   90.00000000
_cell_angle_gamma   120.00016426
_chemical_formula_structural   AuMn
_chemical_formula_sum   'Au1 Mn1'
_cell_volume   32.56830607
loop_
 _symmetry_equiv_pos_site_id
 _symmetry_equiv_pos_as_xyz
  1  'x, y, z'
loop_
 _atom_type_symbol
  Au
  Mn
loop_
 _atom_site_type_symbol
 _atom_site_label
 _atom_site_symmetry_multiplicity
 _atom_site_fract_x
 _atom_site_fract_y
 _atom_site_fract_z
 _atom_site_occupancy
  Au  Au0  1  0.66666780  0.33333460  0.75000000  1
  Mn  Mn0  1  0.33333220  0.66666540  0.25000000  1
