# generated using pymatgen
data_324_BaGa4
_symmetry_space_group_name_H-M   'I4/mmm'
_cell_length_a   4.59849064
_cell_length_b   4.59849064
_cell_length_c   6.31668741
_cell_angle_alpha   111.34577252
_cell_angle_beta   111.34577252
_cell_angle_gamma   90.00000000
_chemical_formula_structural   BaGa4
_chemical_formula_sum   'Ba1 Ga4'
_cell_volume   114.51648273
loop_
 _symmetry_equiv_pos_site_id
 _symmetry_equiv_pos_as_xyz
  1  'x, y, z'
loop_
 _atom_type_symbol
  Ba
  Ga
loop_
 _atom_site_type_symbol
 _atom_site_label
 _atom_site_symmetry_multiplicity
 _atom_site_fract_x
 _atom_site_fract_y
 _atom_site_fract_z
 _atom_site_occupancy
  Ba  Ba0  1  0.00000000  0.00000000  0.00000000  1
  Ga  Ga0  1  0.62061438  0.62061438  0.24122876  1
  Ga  Ga1  1  0.75000000  0.25000000  0.50000000  1
  Ga  Ga2  1  0.25000000  0.75000000  0.50000000  1
  Ga  Ga3  1  0.37938562  0.37938562  0.75877124  1
