# generated using pymatgen
data_3251_Ni2Sr4
_symmetry_space_group_name_H-M   'I4/mcm'
_cell_length_a   6.56613781
_cell_length_b   6.56613781
_cell_length_c   6.56613781
_cell_angle_alpha   104.35244903
_cell_angle_beta   104.35244903
_cell_angle_gamma   120.28012477
_chemical_formula_structural   Ni2Sr4
_chemical_formula_sum   'Ni2 Sr4'
_cell_volume   212.01648764
loop_
 _symmetry_equiv_pos_site_id
 _symmetry_equiv_pos_as_xyz
  1  'x, y, z'
loop_
 _atom_type_symbol
  Ni
  Sr
loop_
 _atom_site_type_symbol
 _atom_site_label
 _atom_site_symmetry_multiplicity
 _atom_site_fract_x
 _atom_site_fract_y
 _atom_site_fract_z
 _atom_site_occupancy
  Ni  Ni0  1  0.75000000  0.75000000  0.00000000  1
  Ni  Ni1  1  0.25000000  0.25000000  0.00000000  1
  Sr  Sr0  1  0.34437374  0.15562626  0.50000000  1
  Sr  Sr1  1  0.65562626  0.84437374  0.50000000  1
  Sr  Sr2  1  0.15562626  0.65562626  0.81125253  1
  Sr  Sr3  1  0.84437374  0.34437374  0.18874747  1
