# generated using pymatgen
data_3254_Ir2W4
_symmetry_space_group_name_H-M   'I4/mcm'
_cell_length_a   5.10338065
_cell_length_b   5.07082718
_cell_length_c   5.07082718
_cell_angle_alpha   104.66814813
_cell_angle_beta   120.21259206
_cell_angle_gamma   59.78740794
_chemical_formula_structural   Ir2W4
_chemical_formula_sum   'Ir2 W4'
_cell_volume   97.99595605
loop_
 _symmetry_equiv_pos_site_id
 _symmetry_equiv_pos_as_xyz
  1  'x, y, z'
loop_
 _atom_type_symbol
  Ir
  W
loop_
 _atom_site_type_symbol
 _atom_site_label
 _atom_site_symmetry_multiplicity
 _atom_site_fract_x
 _atom_site_fract_y
 _atom_site_fract_z
 _atom_site_occupancy
  Ir  Ir0  1  0.25000000  0.00000000  0.00000000  1
  Ir  Ir1  1  0.75000000  0.00000000  0.00000000  1
  W  W0  1  0.14778272  0.20443457  0.50000000  1
  W  W1  1  0.35221728  0.50000000  0.20443457  1
  W  W2  1  0.64778272  0.50000000  0.79556543  1
  W  W3  1  0.85221728  0.79556543  0.50000000  1
