# generated using pymatgen
data_3256_Ga2Ge2
_symmetry_space_group_name_H-M   'Cmcm'
_cell_length_a   5.99312542
_cell_length_b   5.99312542
_cell_length_c   4.11293029
_cell_angle_alpha   90.00000000
_cell_angle_beta   90.00000000
_cell_angle_gamma   148.37481933
_chemical_formula_structural   Ga2Ge2
_chemical_formula_sum   'Ga2 Ge2'
_cell_volume   77.46183541
loop_
 _symmetry_equiv_pos_site_id
 _symmetry_equiv_pos_as_xyz
  1  'x, y, z'
loop_
 _atom_type_symbol
  Ga
  Ge
loop_
 _atom_site_type_symbol
 _atom_site_label
 _atom_site_symmetry_multiplicity
 _atom_site_fract_x
 _atom_site_fract_y
 _atom_site_fract_z
 _atom_site_occupancy
  Ga  Ga0  1  0.91965482  0.08034518  0.75000000  1
  Ga  Ga1  1  0.08034518  0.91965482  0.25000000  1
  Ge  Ge0  1  0.67261074  0.32738926  0.75000000  1
  Ge  Ge1  1  0.32738926  0.67261074  0.25000000  1
