# generated using pymatgen
data_3258_Ta12As12
_symmetry_space_group_name_H-M   'Pbcm'
_cell_length_a   5.31672871
_cell_length_b   7.91324037
_cell_length_c   10.68794366
_cell_angle_alpha   90.00000000
_cell_angle_beta   90.00000000
_cell_angle_gamma   90.00000000
_chemical_formula_structural   Ta12As12
_chemical_formula_sum   'As12 Ta12'
_cell_volume   449.66906823
loop_
 _symmetry_equiv_pos_site_id
 _symmetry_equiv_pos_as_xyz
  1  'x, y, z'
loop_
 _atom_type_symbol
  As
  Ta
loop_
 _atom_site_type_symbol
 _atom_site_label
 _atom_site_symmetry_multiplicity
 _atom_site_fract_x
 _atom_site_fract_y
 _atom_site_fract_z
 _atom_site_occupancy
  As  As0  1  0.25000000  0.14614134  0.17302904  1
  As  As1  1  0.75000000  0.85385866  0.82697096  1
  As  As2  1  0.25000000  0.64614134  0.82697096  1
  As  As3  1  0.75000000  0.35385866  0.17302904  1
  As  As4  1  0.25000000  0.55753813  0.43636166  1
  As  As5  1  0.75000000  0.44246187  0.56363834  1
  As  As6  1  0.25000000  0.05753813  0.56363834  1
  As  As7  1  0.75000000  0.94246187  0.43636166  1
  As  As8  1  0.00000000  0.75000000  0.13696508  1
  As  As9  1  0.50000000  0.25000000  0.86303492  1
  As  As10  1  0.00000000  0.25000000  0.86303492  1
  As  As11  1  0.50000000  0.75000000  0.13696508  1
  Ta  Ta0  1  0.25000000  0.48390696  0.20628520  1
  Ta  Ta1  1  0.75000000  0.51609304  0.79371480  1
  Ta  Ta2  1  0.25000000  0.98390696  0.79371480  1
  Ta  Ta3  1  0.75000000  0.01609304  0.20628520  1
  Ta  Ta4  1  0.25000000  0.88447451  0.34752009  1
  Ta  Ta5  1  0.75000000  0.11552549  0.65247991  1
  Ta  Ta6  1  0.25000000  0.38447451  0.65247991  1
  Ta  Ta7  1  0.75000000  0.61552549  0.34752009  1
  Ta  Ta8  1  0.00000000  0.75000000  0.60383977  1
  Ta  Ta9  1  0.50000000  0.25000000  0.39616023  1
  Ta  Ta10  1  0.00000000  0.25000000  0.39616023  1
  Ta  Ta11  1  0.50000000  0.75000000  0.60383977  1
