# generated using pymatgen
data_3259_Ga2Rh
_symmetry_space_group_name_H-M   'I4/mmm'
_cell_length_a   4.71018710
_cell_length_b   4.71018710
_cell_length_c   4.71018710
_cell_angle_alpha   139.26804549
_cell_angle_beta   139.19480040
_cell_angle_gamma   59.02217497
_chemical_formula_structural   Ga2Rh
_chemical_formula_sum   'Ga2 Rh1'
_cell_volume   44.13343316
loop_
 _symmetry_equiv_pos_site_id
 _symmetry_equiv_pos_as_xyz
  1  'x, y, z'
loop_
 _atom_type_symbol
  Ga
  Rh
loop_
 _atom_site_type_symbol
 _atom_site_label
 _atom_site_symmetry_multiplicity
 _atom_site_fract_x
 _atom_site_fract_y
 _atom_site_fract_z
 _atom_site_occupancy
  Ga  Ga0  1  0.33757737  0.33757737  0.00000000  1
  Ga  Ga1  1  0.66242263  0.66242263  0.00000000  1
  Rh  Rh0  1  0.00000000  0.00000000  0.00000000  1
