# generated using pymatgen
data_325_Fe5Ir
_symmetry_space_group_name_H-M   'P4/mmm'
_cell_length_a   2.53286429
_cell_length_b   2.53286429
_cell_length_c   10.38600143
_cell_angle_alpha   90.00000000
_cell_angle_beta   90.00000000
_cell_angle_gamma   90.00000000
_chemical_formula_structural   Fe5Ir
_chemical_formula_sum   'Fe5 Ir1'
_cell_volume   66.63036927
loop_
 _symmetry_equiv_pos_site_id
 _symmetry_equiv_pos_as_xyz
  1  'x, y, z'
loop_
 _atom_type_symbol
  Fe
  Ir
loop_
 _atom_site_type_symbol
 _atom_site_label
 _atom_site_symmetry_multiplicity
 _atom_site_fract_x
 _atom_site_fract_y
 _atom_site_fract_z
 _atom_site_occupancy
  Fe  Fe0  1  0.00000000  0.00000000  0.81937848  1
  Fe  Fe1  1  0.00000000  0.00000000  0.18062152  1
  Fe  Fe2  1  0.50000000  0.50000000  0.66076926  1
  Fe  Fe3  1  0.50000000  0.50000000  0.33923074  1
  Fe  Fe4  1  0.00000000  0.00000000  0.50000000  1
  Ir  Ir0  1  0.50000000  0.50000000  0.00000000  1
