# generated using pymatgen
data_3262_In4Rh3
_symmetry_space_group_name_H-M   'I4/mmm'
_cell_length_a   10.77456187
_cell_length_b   10.77456187
_cell_length_c   10.77456187
_cell_angle_alpha   161.13506826
_cell_angle_beta   161.13506826
_cell_angle_gamma   26.80240718
_chemical_formula_structural   In4Rh3
_chemical_formula_sum   'In4 Rh3'
_cell_volume   130.72169989
loop_
 _symmetry_equiv_pos_site_id
 _symmetry_equiv_pos_as_xyz
  1  'x, y, z'
loop_
 _atom_type_symbol
  In
  Rh
loop_
 _atom_site_type_symbol
 _atom_site_label
 _atom_site_symmetry_multiplicity
 _atom_site_fract_x
 _atom_site_fract_y
 _atom_site_fract_z
 _atom_site_occupancy
  In  In0  1  0.84136470  0.84136470  0.00000000  1
  In  In1  1  0.15863530  0.15863530  0.00000000  1
  In  In2  1  0.56907085  0.56907085  0.00000000  1
  In  In3  1  0.43092915  0.43092915  0.00000000  1
  Rh  Rh0  1  0.00000000  0.00000000  0.00000000  1
  Rh  Rh1  1  0.70684324  0.70684324  0.00000000  1
  Rh  Rh2  1  0.29315676  0.29315676  0.00000000  1
