# generated using pymatgen
data_3265_CuMn
_symmetry_space_group_name_H-M   'P4/mmm'
_cell_length_a   3.35488785
_cell_length_b   3.35488785
_cell_length_c   3.99173949
_cell_angle_alpha   90.00000000
_cell_angle_beta   90.00000000
_cell_angle_gamma   90.00000000
_chemical_formula_structural   CuMn
_chemical_formula_sum   'Cu2 Mn2'
_cell_volume   44.92811565
loop_
 _symmetry_equiv_pos_site_id
 _symmetry_equiv_pos_as_xyz
  1  'x, y, z'
loop_
 _atom_type_symbol
  Cu
  Mn
loop_
 _atom_site_type_symbol
 _atom_site_label
 _atom_site_symmetry_multiplicity
 _atom_site_fract_x
 _atom_site_fract_y
 _atom_site_fract_z
 _atom_site_occupancy
  Cu  Cu0  1  0.25000000  0.25000000  0.49945077  1
  Cu  Cu1  1  0.75000000  0.75000000  0.50054923  1
  Mn  Mn0  1  0.25000000  0.75000000  0.00000000  1
  Mn  Mn1  1  0.75000000  0.25000000  0.00000000  1
