# generated using pymatgen
data_326_Ba16Ir8
_symmetry_space_group_name_H-M   'Fd -3 m'
_cell_length_a   10.68146403
_cell_length_b   10.68146403
_cell_length_c   10.68146403
_cell_angle_alpha   60.00000000
_cell_angle_beta   60.00000000
_cell_angle_gamma   60.00000000
_chemical_formula_structural   Ba16Ir8
_chemical_formula_sum   'Ba16 Ir8'
_cell_volume   861.74217678
loop_
 _symmetry_equiv_pos_site_id
 _symmetry_equiv_pos_as_xyz
  1  'x, y, z'
loop_
 _atom_type_symbol
  Ba
  Ir
loop_
 _atom_site_type_symbol
 _atom_site_label
 _atom_site_symmetry_multiplicity
 _atom_site_fract_x
 _atom_site_fract_y
 _atom_site_fract_z
 _atom_site_occupancy
  Ba  Ba0  1  0.00000000  0.50000000  0.00000000  1
  Ba  Ba1  1  0.50000000  0.00000000  0.00000000  1
  Ba  Ba2  1  0.50000000  0.50000000  0.00000000  1
  Ba  Ba3  1  0.50000000  0.50000000  0.50000000  1
  Ba  Ba4  1  0.92610183  0.92610183  0.82389817  1
  Ba  Ba5  1  0.92610183  0.32389817  0.82389817  1
  Ba  Ba6  1  0.32389817  0.92610183  0.82389817  1
  Ba  Ba7  1  0.92610183  0.32389817  0.42610183  1
  Ba  Ba8  1  0.32389817  0.92610183  0.42610183  1
  Ba  Ba9  1  0.32389817  0.32389817  0.42610183  1
  Ba  Ba10  1  0.07389817  0.07389817  0.17610183  1
  Ba  Ba11  1  0.07389817  0.67610183  0.17610183  1
  Ba  Ba12  1  0.67610183  0.07389817  0.17610183  1
  Ba  Ba13  1  0.07389817  0.67610183  0.57389817  1
  Ba  Ba14  1  0.67610183  0.07389817  0.57389817  1
  Ba  Ba15  1  0.67610183  0.67610183  0.57389817  1
  Ir  Ir0  1  0.73897267  0.73897267  0.78308198  1
  Ir  Ir1  1  0.73897267  0.73897267  0.23897267  1
  Ir  Ir2  1  0.73897267  0.28308198  0.23897267  1
  Ir  Ir3  1  0.28308198  0.73897267  0.23897267  1
  Ir  Ir4  1  0.26102733  0.26102733  0.21691802  1
  Ir  Ir5  1  0.26102733  0.26102733  0.76102733  1
  Ir  Ir6  1  0.26102733  0.71691802  0.76102733  1
  Ir  Ir7  1  0.71691802  0.26102733  0.76102733  1
