# generated using pymatgen
data_3270_K2Sr2
_symmetry_space_group_name_H-M   'Pmma'
_cell_length_a   4.26131091
_cell_length_b   7.29276606
_cell_length_c   8.14830283
_cell_angle_alpha   90.00000000
_cell_angle_beta   90.00000000
_cell_angle_gamma   90.00000000
_chemical_formula_structural   K2Sr2
_chemical_formula_sum   'K2 Sr2'
_cell_volume   253.22271762
loop_
 _symmetry_equiv_pos_site_id
 _symmetry_equiv_pos_as_xyz
  1  'x, y, z'
loop_
 _atom_type_symbol
  K
  Sr
loop_
 _atom_site_type_symbol
 _atom_site_label
 _atom_site_symmetry_multiplicity
 _atom_site_fract_x
 _atom_site_fract_y
 _atom_site_fract_z
 _atom_site_occupancy
  K  K0  1  0.00000000  0.00000000  0.01956531  1
  K  K1  1  0.00000000  0.50000000  0.31376802  1
  Sr  Sr0  1  0.50000000  0.00000000  0.53578692  1
  Sr  Sr1  1  0.50000000  0.50000000  0.79754641  1
