# generated using pymatgen
data_3273_Fe3V4
_symmetry_space_group_name_H-M   'I4/mmm'
_cell_length_a   2.86911297
_cell_length_b   10.40070332
_cell_length_c   2.86911297
_cell_angle_alpha   82.07198776
_cell_angle_beta   90.00000000
_cell_angle_gamma   97.92801224
_chemical_formula_structural   Fe3V4
_chemical_formula_sum   'Fe3 V4'
_cell_volume   83.97200976
loop_
 _symmetry_equiv_pos_site_id
 _symmetry_equiv_pos_as_xyz
  1  'x, y, z'
loop_
 _atom_type_symbol
  Fe
  V
loop_
 _atom_site_type_symbol
 _atom_site_label
 _atom_site_symmetry_multiplicity
 _atom_site_fract_x
 _atom_site_fract_y
 _atom_site_fract_z
 _atom_site_occupancy
  Fe  Fe0  1  0.00000000  0.00000000  0.00000000  1
  Fe  Fe1  1  0.28930516  0.57861032  0.71069484  1
  Fe  Fe2  1  0.71069484  0.42138968  0.28930516  1
  V  V0  1  0.14787040  0.29574081  0.85212960  1
  V  V1  1  0.42954694  0.85909389  0.57045306  1
  V  V2  1  0.57045306  0.14090611  0.42954694  1
  V  V3  1  0.85212960  0.70425919  0.14787040  1
