# generated using pymatgen
data_3277_Mn2Sb2
_symmetry_space_group_name_H-M   'Cmcm'
_cell_length_a   4.99072650
_cell_length_b   4.99072650
_cell_length_c   3.87516453
_cell_angle_alpha   90.00000000
_cell_angle_beta   90.00000000
_cell_angle_gamma   134.38749428
_chemical_formula_structural   Mn2Sb2
_chemical_formula_sum   'Mn2 Sb2'
_cell_volume   68.97570060
loop_
 _symmetry_equiv_pos_site_id
 _symmetry_equiv_pos_as_xyz
  1  'x, y, z'
loop_
 _atom_type_symbol
  Mn
  Sb
loop_
 _atom_site_type_symbol
 _atom_site_label
 _atom_site_symmetry_multiplicity
 _atom_site_fract_x
 _atom_site_fract_y
 _atom_site_fract_z
 _atom_site_occupancy
  Mn  Mn0  1  0.94069871  0.05930129  0.75000000  1
  Mn  Mn1  1  0.05930129  0.94069871  0.25000000  1
  Sb  Sb0  1  0.64687883  0.35312117  0.75000000  1
  Sb  Sb1  1  0.35312117  0.64687883  0.25000000  1
