# generated using pymatgen
data_3281_Sn18W6
_symmetry_space_group_name_H-M   'Pmmn'
_cell_length_a   6.50668060
_cell_length_b   5.83397444
_cell_length_c   14.69636632
_cell_angle_alpha   90.00000000
_cell_angle_beta   90.00000000
_cell_angle_gamma   90.00000000
_chemical_formula_structural   Sn18W6
_chemical_formula_sum   'Sn18 W6'
_cell_volume   557.87124836
loop_
 _symmetry_equiv_pos_site_id
 _symmetry_equiv_pos_as_xyz
  1  'x, y, z'
loop_
 _atom_type_symbol
  Sn
  W
loop_
 _atom_site_type_symbol
 _atom_site_label
 _atom_site_symmetry_multiplicity
 _atom_site_fract_x
 _atom_site_fract_y
 _atom_site_fract_z
 _atom_site_occupancy
  Sn  Sn0  1  0.24379955  0.00356194  0.43302098  1
  Sn  Sn1  1  0.24379955  0.00356194  0.06697902  1
  Sn  Sn2  1  0.46615143  0.98382296  0.75000000  1
  Sn  Sn3  1  0.53384857  0.01617704  0.25000000  1
  Sn  Sn4  1  0.75620045  0.99643806  0.93302098  1
  Sn  Sn5  1  0.75620045  0.99643806  0.56697902  1
  Sn  Sn6  1  0.03240151  0.25000000  0.25000000  1
  Sn  Sn7  1  0.15939703  0.25000000  0.86475646  1
  Sn  Sn8  1  0.15939703  0.25000000  0.63524354  1
  Sn  Sn9  1  0.24379955  0.49643806  0.43302098  1
  Sn  Sn10  1  0.24379955  0.49643806  0.06697902  1
  Sn  Sn11  1  0.46615143  0.51617704  0.75000000  1
  Sn  Sn12  1  0.53384857  0.48382296  0.25000000  1
  Sn  Sn13  1  0.75620045  0.50356194  0.93302098  1
  Sn  Sn14  1  0.75620045  0.50356194  0.56697902  1
  Sn  Sn15  1  0.96759849  0.75000000  0.75000000  1
  Sn  Sn16  1  0.84060297  0.75000000  0.36475646  1
  Sn  Sn17  1  0.84060297  0.75000000  0.13524354  1
  W  W0  1  0.81021034  0.25000000  0.75000000  1
  W  W1  1  0.75181096  0.25000000  0.40135313  1
  W  W2  1  0.75181096  0.25000000  0.09864687  1
  W  W3  1  0.18978966  0.75000000  0.25000000  1
  W  W4  1  0.24818904  0.75000000  0.90135313  1
  W  W5  1  0.24818904  0.75000000  0.59864687  1
