# generated using pymatgen
data_3284_SrAs
_symmetry_space_group_name_H-M   'P-6m2'
_cell_length_a   4.06642400
_cell_length_b   4.06637851
_cell_length_c   4.36048900
_cell_angle_alpha   89.99995387
_cell_angle_beta   90.00002723
_cell_angle_gamma   120.00014345
_chemical_formula_structural   SrAs
_chemical_formula_sum   'As1 Sr1'
_cell_volume   62.44327325
loop_
 _symmetry_equiv_pos_site_id
 _symmetry_equiv_pos_as_xyz
  1  'x, y, z'
loop_
 _atom_type_symbol
  As
  Sr
loop_
 _atom_site_type_symbol
 _atom_site_label
 _atom_site_symmetry_multiplicity
 _atom_site_fract_x
 _atom_site_fract_y
 _atom_site_fract_z
 _atom_site_occupancy
  As  As0  1  0.66666654  0.33333466  0.75000075  1
  Sr  Sr0  1  0.33333317  0.66666343  0.24999931  1
