# generated using pymatgen
data_3285_In24Pt5
_symmetry_space_group_name_H-M   'I-43m'
_cell_length_a   10.07009211
_cell_length_b   10.07009211
_cell_length_c   10.07009211
_cell_angle_alpha   109.47122063
_cell_angle_beta   109.47122063
_cell_angle_gamma   109.47122063
_chemical_formula_structural   In24Pt5
_chemical_formula_sum   'In24 Pt5'
_cell_volume   786.10116190
loop_
 _symmetry_equiv_pos_site_id
 _symmetry_equiv_pos_as_xyz
  1  'x, y, z'
loop_
 _atom_type_symbol
  In
  Pt
loop_
 _atom_site_type_symbol
 _atom_site_label
 _atom_site_symmetry_multiplicity
 _atom_site_fract_x
 _atom_site_fract_y
 _atom_site_fract_z
 _atom_site_occupancy
  In  In0  1  0.00000000  0.63621548  0.81166944  1
  In  In1  1  0.00000000  0.81166944  0.63621548  1
  In  In2  1  0.82454604  0.18833056  0.18833056  1
  In  In3  1  0.17545396  0.36378452  0.36378452  1
  In  In4  1  0.18833056  0.82454604  0.18833056  1
  In  In5  1  0.36378452  0.17545396  0.36378452  1
  In  In6  1  0.81166944  0.00000000  0.63621548  1
  In  In7  1  0.63621548  0.00000000  0.81166944  1
  In  In8  1  0.81166944  0.63621548  0.00000000  1
  In  In9  1  0.63621548  0.81166944  0.00000000  1
  In  In10  1  0.36378452  0.36378452  0.17545396  1
  In  In11  1  0.18833056  0.18833056  0.82454604  1
  In  In12  1  1.00000000  0.53030666  0.21593020  1
  In  In13  1  1.00000000  0.21593020  0.53030666  1
  In  In14  1  0.31437646  0.78406980  0.78406980  1
  In  In15  1  0.68562354  0.46969334  0.46969334  1
  In  In16  1  0.78406980  0.31437646  0.78406980  1
  In  In17  1  0.46969334  0.68562354  0.46969334  1
  In  In18  1  0.21593020  0.00000000  0.53030666  1
  In  In19  1  0.53030666  0.00000000  0.21593020  1
  In  In20  1  0.21593020  0.53030666  0.00000000  1
  In  In21  1  0.53030666  0.21593020  0.00000000  1
  In  In22  1  0.46969334  0.46969334  0.68562354  1
  In  In23  1  0.78406980  0.78406980  0.31437646  1
  Pt  Pt0  1  0.00000000  0.26309148  0.00000000  1
  Pt  Pt1  1  0.00000000  0.00000000  0.26309148  1
  Pt  Pt2  1  0.26309148  0.00000000  0.00000000  1
  Pt  Pt3  1  0.73690852  0.73690852  0.73690852  1
  Pt  Pt4  1  0.00000000  0.00000000  0.00000000  1
