# generated using pymatgen
data_3289_AlSr3
_symmetry_space_group_name_H-M   'I4/mmm'
_cell_length_a   6.06960532
_cell_length_b   6.06960532
_cell_length_c   6.06960532
_cell_angle_alpha   121.89715218
_cell_angle_beta   121.89715218
_cell_angle_gamma   86.74429066
_chemical_formula_structural   AlSr3
_chemical_formula_sum   'Al1 Sr3'
_cell_volume   153.30930777
loop_
 _symmetry_equiv_pos_site_id
 _symmetry_equiv_pos_as_xyz
  1  'x, y, z'
loop_
 _atom_type_symbol
  Al
  Sr
loop_
 _atom_site_type_symbol
 _atom_site_label
 _atom_site_symmetry_multiplicity
 _atom_site_fract_x
 _atom_site_fract_y
 _atom_site_fract_z
 _atom_site_occupancy
  Al  Al0  1  0.00000000  0.00000000  0.00000000  1
  Sr  Sr0  1  0.50000000  0.50000000  0.00000000  1
  Sr  Sr1  1  0.75000000  0.25000000  0.50000000  1
  Sr  Sr2  1  0.25000000  0.75000000  0.50000000  1
