# generated using pymatgen
data_328_Ba2In
_symmetry_space_group_name_H-M   'I4/mmm'
_cell_length_a   8.09590028
_cell_length_b   8.09590028
_cell_length_c   8.09590028
_cell_angle_alpha   148.78680697
_cell_angle_beta   148.78680697
_cell_angle_gamma   44.72521016
_chemical_formula_structural   Ba2In
_chemical_formula_sum   'Ba2 In1'
_cell_volume   142.07066523
loop_
 _symmetry_equiv_pos_site_id
 _symmetry_equiv_pos_as_xyz
  1  'x, y, z'
loop_
 _atom_type_symbol
  Ba
  In
loop_
 _atom_site_type_symbol
 _atom_site_label
 _atom_site_symmetry_multiplicity
 _atom_site_fract_x
 _atom_site_fract_y
 _atom_site_fract_z
 _atom_site_occupancy
  Ba  Ba0  1  0.63099896  0.63099896  0.00000000  1
  Ba  Ba1  1  0.36900104  0.36900104  0.00000000  1
  In  In0  1  0.00000000  0.00000000  0.00000000  1
