# generated using pymatgen
data_3293_Na4Pd2
_symmetry_space_group_name_H-M   'Cmcm'
_cell_length_a   8.59958171
_cell_length_b   8.59958171
_cell_length_c   5.08458834
_cell_angle_alpha   90.00000000
_cell_angle_beta   90.00000000
_cell_angle_gamma   158.99539606
_chemical_formula_structural   Na4Pd2
_chemical_formula_sum   'Na4 Pd2'
_cell_volume   134.78157073
loop_
 _symmetry_equiv_pos_site_id
 _symmetry_equiv_pos_as_xyz
  1  'x, y, z'
loop_
 _atom_type_symbol
  Na
  Pd
loop_
 _atom_site_type_symbol
 _atom_site_label
 _atom_site_symmetry_multiplicity
 _atom_site_fract_x
 _atom_site_fract_y
 _atom_site_fract_z
 _atom_site_occupancy
  Na  Na0  1  0.97522057  0.02477943  0.00000000  1
  Na  Na1  1  0.24700165  0.75299835  0.50000000  1
  Na  Na2  1  0.53580647  0.46419353  0.50000000  1
  Na  Na3  1  0.68641575  0.31358425  0.00000000  1
  Pd  Pd0  1  0.33903378  0.66096622  0.00000000  1
  Pd  Pd1  1  0.88318844  0.11681156  0.50000000  1
