# generated using pymatgen
data_32_In4Br12
_symmetry_space_group_name_H-M   'Pnma'
_cell_length_a   7.49795308
_cell_length_b   6.91012966
_cell_length_c   11.81085739
_cell_angle_alpha   90.00000000
_cell_angle_beta   90.00000000
_cell_angle_gamma   90.00000000
_chemical_formula_structural   In4Br12
_chemical_formula_sum   'Br12 In4'
_cell_volume   611.94211124
loop_
 _symmetry_equiv_pos_site_id
 _symmetry_equiv_pos_as_xyz
  1  'x, y, z'
loop_
 _atom_type_symbol
  Br
  In
loop_
 _atom_site_type_symbol
 _atom_site_label
 _atom_site_symmetry_multiplicity
 _atom_site_fract_x
 _atom_site_fract_y
 _atom_site_fract_z
 _atom_site_occupancy
  Br  Br0  1  0.13101591  0.16109980  0.75000000  1
  Br  Br1  1  0.63101591  0.33890020  0.25000000  1
  Br  Br2  1  0.36898409  0.66109980  0.75000000  1
  Br  Br3  1  0.86898409  0.83890020  0.25000000  1
  Br  Br4  1  0.64732594  0.14248304  0.90106146  1
  Br  Br5  1  0.14732594  0.35751696  0.09893854  1
  Br  Br6  1  0.85267406  0.64248304  0.59893854  1
  Br  Br7  1  0.35267406  0.85751696  0.40106146  1
  Br  Br8  1  0.35267406  0.85751696  0.09893854  1
  Br  Br9  1  0.85267406  0.64248304  0.90106146  1
  Br  Br10  1  0.14732594  0.35751696  0.40106146  1
  Br  Br11  1  0.64732594  0.14248304  0.59893854  1
  In  In0  1  0.65254294  0.85414124  0.75000000  1
  In  In1  1  0.15254294  0.64585876  0.25000000  1
  In  In2  1  0.84745706  0.35414124  0.75000000  1
  In  In3  1  0.34745706  0.14585876  0.25000000  1
