# generated using pymatgen
data_3301_Ni2Pt6
_symmetry_space_group_name_H-M   'P6_3/mmc'
_cell_length_a   5.45734352
_cell_length_b   5.45734408
_cell_length_c   4.55482156
_cell_angle_alpha   90.00000000
_cell_angle_beta   90.00000000
_cell_angle_gamma   119.99999662
_chemical_formula_structural   Ni2Pt6
_chemical_formula_sum   'Ni2 Pt6'
_cell_volume   117.48019059
loop_
 _symmetry_equiv_pos_site_id
 _symmetry_equiv_pos_as_xyz
  1  'x, y, z'
loop_
 _atom_type_symbol
  Ni
  Pt
loop_
 _atom_site_type_symbol
 _atom_site_label
 _atom_site_symmetry_multiplicity
 _atom_site_fract_x
 _atom_site_fract_y
 _atom_site_fract_z
 _atom_site_occupancy
  Ni  Ni0  1  0.66666700  0.33333300  0.25000000  1
  Ni  Ni1  1  0.33333300  0.66666700  0.75000000  1
  Pt  Pt0  1  0.16822412  0.33644824  0.25000000  1
  Pt  Pt1  1  0.16822412  0.83177588  0.25000000  1
  Pt  Pt2  1  0.66355176  0.83177588  0.25000000  1
  Pt  Pt3  1  0.33644824  0.16822412  0.75000000  1
  Pt  Pt4  1  0.83177588  0.16822412  0.75000000  1
  Pt  Pt5  1  0.83177588  0.66355176  0.75000000  1
