# generated using pymatgen
data_3309_Fe4Pb6
_symmetry_space_group_name_H-M   'Fdd2'
_cell_length_a   8.35783546
_cell_length_b   7.06777917
_cell_length_c   5.72559158
_cell_angle_alpha   80.84116637
_cell_angle_beta   56.60186986
_cell_angle_gamma   42.55696378
_chemical_formula_structural   Fe4Pb6
_chemical_formula_sum   'Fe4 Pb6'
_cell_volume   171.84546885
loop_
 _symmetry_equiv_pos_site_id
 _symmetry_equiv_pos_as_xyz
  1  'x, y, z'
loop_
 _atom_type_symbol
  Fe
  Pb
loop_
 _atom_site_type_symbol
 _atom_site_label
 _atom_site_symmetry_multiplicity
 _atom_site_fract_x
 _atom_site_fract_y
 _atom_site_fract_z
 _atom_site_occupancy
  Fe  Fe0  1  0.52387845  0.36992598  0.90345761  1
  Fe  Fe1  1  0.20273796  0.90345761  0.36992598  1
  Fe  Fe2  1  0.88007402  0.72612155  0.04726204  1
  Fe  Fe3  1  0.34654239  0.04726204  0.72612155  1
  Pb  Pb0  1  0.42148611  0.35230369  0.47273802  1
  Pb  Pb1  1  0.75347218  0.47273802  0.35230369  1
  Pb  Pb2  1  0.89769631  0.82851389  0.49652782  1
  Pb  Pb3  1  0.77726198  0.49652782  0.82851389  1
  Pb  Pb4  1  0.09842530  0.90157470  0.90157470  1
  Pb  Pb5  1  0.34842530  0.15157470  0.15157470  1
