# generated using pymatgen
data_3311_K4Mo2
_symmetry_space_group_name_H-M   'Cmcm'
_cell_length_a   10.90126971
_cell_length_b   10.90126971
_cell_length_c   3.48691951
_cell_angle_alpha   90.00000000
_cell_angle_beta   90.00000000
_cell_angle_gamma   135.10033500
_chemical_formula_structural   K4Mo2
_chemical_formula_sum   'K4 Mo2'
_cell_volume   292.49553055
loop_
 _symmetry_equiv_pos_site_id
 _symmetry_equiv_pos_as_xyz
  1  'x, y, z'
loop_
 _atom_type_symbol
  K
  Mo
loop_
 _atom_site_type_symbol
 _atom_site_label
 _atom_site_symmetry_multiplicity
 _atom_site_fract_x
 _atom_site_fract_y
 _atom_site_fract_z
 _atom_site_occupancy
  K  K0  1  0.10565185  0.38818687  0.75000000  1
  K  K1  1  0.89434815  0.61181313  0.25000000  1
  K  K2  1  0.38818687  0.10565185  0.75000000  1
  K  K3  1  0.61181313  0.89434815  0.25000000  1
  Mo  Mo0  1  0.90548366  0.90548366  0.75000000  1
  Mo  Mo1  1  0.09451634  0.09451634  0.25000000  1
