# generated using pymatgen
data_3314_PtBr5
_symmetry_space_group_name_H-M   'Amm2'
_cell_length_a   6.84491427
_cell_length_b   6.84491427
_cell_length_c   8.22859407
_cell_angle_alpha   90.00000000
_cell_angle_beta   90.00000000
_cell_angle_gamma   148.71615979
_chemical_formula_structural   PtBr5
_chemical_formula_sum   'Br5 Pt1'
_cell_volume   200.19889222
loop_
 _symmetry_equiv_pos_site_id
 _symmetry_equiv_pos_as_xyz
  1  'x, y, z'
loop_
 _atom_type_symbol
  Br
  Pt
loop_
 _atom_site_type_symbol
 _atom_site_label
 _atom_site_symmetry_multiplicity
 _atom_site_fract_x
 _atom_site_fract_y
 _atom_site_fract_z
 _atom_site_occupancy
  Br  Br0  1  0.98097632  0.01902368  0.00000000  1
  Br  Br1  1  0.31404811  0.68595189  0.00000000  1
  Br  Br2  1  0.64742676  0.35257324  0.00000000  1
  Br  Br3  1  0.50666467  0.49333533  0.50000000  1
  Br  Br4  1  0.75390329  0.24609671  0.50000000  1
  Pt  Pt0  1  0.13031418  0.86968582  0.50000000  1
