# generated using pymatgen
data_3319_Mo18Sr6
_symmetry_space_group_name_H-M   'Pmmn'
_cell_length_a   6.93271693
_cell_length_b   6.06850443
_cell_length_c   13.46368007
_cell_angle_alpha   90.00000000
_cell_angle_beta   90.00000000
_cell_angle_gamma   90.00000000
_chemical_formula_structural   Mo18Sr6
_chemical_formula_sum   'Mo18 Sr6'
_cell_volume   566.43349203
loop_
 _symmetry_equiv_pos_site_id
 _symmetry_equiv_pos_as_xyz
  1  'x, y, z'
loop_
 _atom_type_symbol
  Mo
  Sr
loop_
 _atom_site_type_symbol
 _atom_site_label
 _atom_site_symmetry_multiplicity
 _atom_site_fract_x
 _atom_site_fract_y
 _atom_site_fract_z
 _atom_site_occupancy
  Mo  Mo0  1  0.40405946  0.02246732  0.41104217  1
  Mo  Mo1  1  0.40405946  0.02246732  0.08895783  1
  Mo  Mo2  1  0.38406963  0.02552908  0.75000000  1
  Mo  Mo3  1  0.61593037  0.97447092  0.25000000  1
  Mo  Mo4  1  0.59594054  0.97753268  0.91104217  1
  Mo  Mo5  1  0.59594054  0.97753268  0.58895783  1
  Mo  Mo6  1  0.32255027  0.25000000  0.25000000  1
  Mo  Mo7  1  0.32303619  0.25000000  0.92155288  1
  Mo  Mo8  1  0.32303619  0.25000000  0.57844712  1
  Mo  Mo9  1  0.40405946  0.47753268  0.41104217  1
  Mo  Mo10  1  0.40405946  0.47753268  0.08895783  1
  Mo  Mo11  1  0.38406963  0.47447092  0.75000000  1
  Mo  Mo12  1  0.61593037  0.52552908  0.25000000  1
  Mo  Mo13  1  0.59594054  0.52246732  0.91104217  1
  Mo  Mo14  1  0.59594054  0.52246732  0.58895783  1
  Mo  Mo15  1  0.67744973  0.75000000  0.75000000  1
  Mo  Mo16  1  0.67696381  0.75000000  0.42155288  1
  Mo  Mo17  1  0.67696381  0.75000000  0.07844712  1
  Sr  Sr0  1  0.90171907  0.25000000  0.75000000  1
  Sr  Sr1  1  0.89734269  0.25000000  0.42349494  1
  Sr  Sr2  1  0.89734269  0.25000000  0.07650506  1
  Sr  Sr3  1  0.09828093  0.75000000  0.25000000  1
  Sr  Sr4  1  0.10265731  0.75000000  0.92349494  1
  Sr  Sr5  1  0.10265731  0.75000000  0.57650506  1
