# generated using pymatgen
data_3320_Mo12Ta4
_symmetry_space_group_name_H-M   'Pnma'
_cell_length_a   5.40457364
_cell_length_b   9.20340480
_cell_length_c   5.35915255
_cell_angle_alpha   90.00000000
_cell_angle_beta   90.00000000
_cell_angle_gamma   90.00000000
_chemical_formula_structural   Mo12Ta4
_chemical_formula_sum   'Mo12 Ta4'
_cell_volume   266.56681477
loop_
 _symmetry_equiv_pos_site_id
 _symmetry_equiv_pos_as_xyz
  1  'x, y, z'
loop_
 _atom_type_symbol
  Mo
  Ta
loop_
 _atom_site_type_symbol
 _atom_site_label
 _atom_site_symmetry_multiplicity
 _atom_site_fract_x
 _atom_site_fract_y
 _atom_site_fract_z
 _atom_site_occupancy
  Mo  Mo0  1  0.01279979  0.25000000  0.80772674  1
  Mo  Mo1  1  0.25425900  0.99594449  0.42615188  1
  Mo  Mo2  1  0.25425900  0.50405551  0.42615188  1
  Mo  Mo3  1  0.24574100  0.49594449  0.92615188  1
  Mo  Mo4  1  0.24574100  0.00405551  0.92615188  1
  Mo  Mo5  1  0.48720021  0.75000000  0.30772674  1
  Mo  Mo6  1  0.51279979  0.25000000  0.69227326  1
  Mo  Mo7  1  0.75425900  0.99594449  0.07384812  1
  Mo  Mo8  1  0.75425900  0.50405551  0.07384812  1
  Mo  Mo9  1  0.74574100  0.49594449  0.57384812  1
  Mo  Mo10  1  0.74574100  0.00405551  0.57384812  1
  Mo  Mo11  1  0.98720021  0.75000000  0.19227326  1
  Ta  Ta0  1  0.00096794  0.75000000  0.69336784  1
  Ta  Ta1  1  0.49903206  0.25000000  0.19336784  1
  Ta  Ta2  1  0.50096794  0.75000000  0.80663216  1
  Ta  Ta3  1  0.99903206  0.25000000  0.30663216  1
