# generated using pymatgen
data_3322_Al6Ge2
_symmetry_space_group_name_H-M   'P6_3/mmc'
_cell_length_a   5.77233858
_cell_length_b   5.77233838
_cell_length_c   4.79325657
_cell_angle_alpha   90.00000000
_cell_angle_beta   90.00000000
_cell_angle_gamma   119.99999540
_chemical_formula_structural   Al6Ge2
_chemical_formula_sum   'Al6 Ge2'
_cell_volume   138.31360698
loop_
 _symmetry_equiv_pos_site_id
 _symmetry_equiv_pos_as_xyz
  1  'x, y, z'
loop_
 _atom_type_symbol
  Al
  Ge
loop_
 _atom_site_type_symbol
 _atom_site_label
 _atom_site_symmetry_multiplicity
 _atom_site_fract_x
 _atom_site_fract_y
 _atom_site_fract_z
 _atom_site_occupancy
  Al  Al0  1  0.16560971  0.33121941  0.24999938  1
  Al  Al1  1  0.16560875  0.83439130  0.24999938  1
  Al  Al2  1  0.66878255  0.83439130  0.24999938  1
  Al  Al3  1  0.33121810  0.16560871  0.75000023  1
  Al  Al4  1  0.83439017  0.16560871  0.75000023  1
  Al  Al5  1  0.83439094  0.66878059  0.75000023  1
  Ge  Ge0  1  0.66666698  0.33333267  0.24999938  1
  Ge  Ge1  1  0.33333367  0.66666733  0.75000023  1
