# generated using pymatgen
data_3323_Sr4As2
_symmetry_space_group_name_H-M   'Pnnm'
_cell_length_a   4.59429885
_cell_length_b   7.30879088
_cell_length_c   7.42832366
_cell_angle_alpha   90.00000000
_cell_angle_beta   90.00000000
_cell_angle_gamma   90.00000000
_chemical_formula_structural   Sr4As2
_chemical_formula_sum   'As2 Sr4'
_cell_volume   249.43396821
loop_
 _symmetry_equiv_pos_site_id
 _symmetry_equiv_pos_as_xyz
  1  'x, y, z'
loop_
 _atom_type_symbol
  As
  Sr
loop_
 _atom_site_type_symbol
 _atom_site_label
 _atom_site_symmetry_multiplicity
 _atom_site_fract_x
 _atom_site_fract_y
 _atom_site_fract_z
 _atom_site_occupancy
  As  As0  1  0.00000000  0.00000000  0.00000000  1
  As  As1  1  0.50000000  0.50000000  0.50000000  1
  Sr  Sr0  1  0.00000000  0.27194219  0.67342783  1
  Sr  Sr1  1  0.00000000  0.72805781  0.32657217  1
  Sr  Sr2  1  0.50000000  0.77194219  0.82657217  1
  Sr  Sr3  1  0.50000000  0.22805781  0.17342783  1
