# generated using pymatgen
data_3331_KP
_symmetry_space_group_name_H-M   'P4/mmm'
_cell_length_a   2.97837760
_cell_length_b   4.21206300
_cell_length_c   5.02495300
_cell_angle_alpha   90.00000000
_cell_angle_beta   90.00000000
_cell_angle_gamma   45.00000000
_chemical_formula_structural   KP
_chemical_formula_sum   'K1 P1'
_cell_volume   44.57502772
loop_
 _symmetry_equiv_pos_site_id
 _symmetry_equiv_pos_as_xyz
  1  'x, y, z'
loop_
 _atom_type_symbol
  K
  P
loop_
 _atom_site_type_symbol
 _atom_site_label
 _atom_site_symmetry_multiplicity
 _atom_site_fract_x
 _atom_site_fract_y
 _atom_site_fract_z
 _atom_site_occupancy
  K  K0  1  0.00000000  0.00000000  0.00000000  1
  P  P0  1  0.00000000  0.49999970  0.50000070  1
