# generated using pymatgen
data_3336_Al8Mn16
_symmetry_space_group_name_H-M   'Fd -3 m'
_cell_length_a   7.84163620
_cell_length_b   7.84163620
_cell_length_c   7.84163620
_cell_angle_alpha   60.00000000
_cell_angle_beta   60.00000000
_cell_angle_gamma   60.00000000
_chemical_formula_structural   Al8Mn16
_chemical_formula_sum   'Al8 Mn16'
_cell_volume   340.96128701
loop_
 _symmetry_equiv_pos_site_id
 _symmetry_equiv_pos_as_xyz
  1  'x, y, z'
loop_
 _atom_type_symbol
  Al
  Mn
loop_
 _atom_site_type_symbol
 _atom_site_label
 _atom_site_symmetry_multiplicity
 _atom_site_fract_x
 _atom_site_fract_y
 _atom_site_fract_z
 _atom_site_occupancy
  Al  Al0  1  0.71755654  0.71755654  0.84733038  1
  Al  Al1  1  0.71755654  0.71755654  0.21755654  1
  Al  Al2  1  0.71755654  0.34733038  0.21755654  1
  Al  Al3  1  0.34733038  0.71755654  0.21755654  1
  Al  Al4  1  0.28244346  0.28244346  0.15266962  1
  Al  Al5  1  0.28244346  0.28244346  0.78244346  1
  Al  Al6  1  0.28244346  0.65266962  0.78244346  1
  Al  Al7  1  0.65266962  0.28244346  0.78244346  1
  Mn  Mn0  1  0.00000000  0.50000000  0.00000000  1
  Mn  Mn1  1  0.50000000  0.00000000  0.00000000  1
  Mn  Mn2  1  0.50000000  0.50000000  0.00000000  1
  Mn  Mn3  1  0.50000000  0.50000000  0.50000000  1
  Mn  Mn4  1  0.92973521  0.92973521  0.82026479  1
  Mn  Mn5  1  0.92973521  0.32026479  0.82026479  1
  Mn  Mn6  1  0.32026479  0.92973521  0.82026479  1
  Mn  Mn7  1  0.92973521  0.32026479  0.42973521  1
  Mn  Mn8  1  0.32026479  0.92973521  0.42973521  1
  Mn  Mn9  1  0.32026479  0.32026479  0.42973521  1
  Mn  Mn10  1  0.07026479  0.07026479  0.17973521  1
  Mn  Mn11  1  0.07026479  0.67973521  0.17973521  1
  Mn  Mn12  1  0.67973521  0.07026479  0.17973521  1
  Mn  Mn13  1  0.07026479  0.67973521  0.57026479  1
  Mn  Mn14  1  0.67973521  0.07026479  0.57026479  1
  Mn  Mn15  1  0.67973521  0.67973521  0.57026479  1
