# generated using pymatgen
data_3341_EuNb
_symmetry_space_group_name_H-M   'R -3 m'
_cell_length_a   5.82012306
_cell_length_b   5.82012306
_cell_length_c   5.82012282
_cell_angle_alpha   30.92104679
_cell_angle_beta   30.92104679
_cell_angle_gamma   30.92105118
_chemical_formula_structural   EuNb
_chemical_formula_sum   'Eu1 Nb1'
_cell_volume   46.17515936
loop_
 _symmetry_equiv_pos_site_id
 _symmetry_equiv_pos_as_xyz
  1  'x, y, z'
loop_
 _atom_type_symbol
  Eu
  Nb
loop_
 _atom_site_type_symbol
 _atom_site_label
 _atom_site_symmetry_multiplicity
 _atom_site_fract_x
 _atom_site_fract_y
 _atom_site_fract_z
 _atom_site_occupancy
  Eu  Eu0  1  0.00000000  0.00000000  0.00000000  1
  Nb  Nb0  1  0.49999973  0.49999973  0.49999996  1
