# generated using pymatgen
data_3342_KP3
_symmetry_space_group_name_H-M   'Pmmm'
_cell_length_a   4.62809582
_cell_length_b   2.91008904
_cell_length_c   6.04094393
_cell_angle_alpha   90.37196772
_cell_angle_beta   90.00000000
_cell_angle_gamma   90.00000000
_chemical_formula_structural   KP3
_chemical_formula_sum   'K1 P3'
_cell_volume   81.35875083
loop_
 _symmetry_equiv_pos_site_id
 _symmetry_equiv_pos_as_xyz
  1  'x, y, z'
loop_
 _atom_type_symbol
  K
  P
loop_
 _atom_site_type_symbol
 _atom_site_label
 _atom_site_symmetry_multiplicity
 _atom_site_fract_x
 _atom_site_fract_y
 _atom_site_fract_z
 _atom_site_occupancy
  K  K0  1  0.00000000  0.00000000  0.00000000  1
  P  P0  1  0.50000000  0.50863484  0.67655979  1
  P  P1  1  0.00000000  0.50000000  0.50000000  1
  P  P2  1  0.50000000  0.49136516  0.32344021  1
