# generated using pymatgen
data_3347_CuIn5
_symmetry_space_group_name_H-M   'F-43m'
_cell_length_a   6.11479383
_cell_length_b   6.11479383
_cell_length_c   6.11479383
_cell_angle_alpha   60.00000000
_cell_angle_beta   60.00000000
_cell_angle_gamma   60.00000000
_chemical_formula_structural   CuIn5
_chemical_formula_sum   'Cu1 In5'
_cell_volume   161.67037937
loop_
 _symmetry_equiv_pos_site_id
 _symmetry_equiv_pos_as_xyz
  1  'x, y, z'
loop_
 _atom_type_symbol
  Cu
  In
loop_
 _atom_site_type_symbol
 _atom_site_label
 _atom_site_symmetry_multiplicity
 _atom_site_fract_x
 _atom_site_fract_y
 _atom_site_fract_z
 _atom_site_occupancy
  Cu  Cu0  1  0.00000000  0.00000000  0.00000000  1
  In  In0  1  0.75000000  0.75000000  0.75000000  1
  In  In1  1  0.37456902  0.37456902  0.87629294  1
  In  In2  1  0.37456902  0.37456902  0.37456902  1
  In  In3  1  0.87629294  0.37456902  0.37456902  1
  In  In4  1  0.37456902  0.87629294  0.37456902  1
