# generated using pymatgen
data_334_Ba2Cu
_symmetry_space_group_name_H-M   'I4/mmm'
_cell_length_a   7.99461193
_cell_length_b   7.99461193
_cell_length_c   7.99461193
_cell_angle_alpha   150.71926335
_cell_angle_beta   150.71926335
_cell_angle_gamma   41.88661706
_chemical_formula_structural   Ba2Cu
_chemical_formula_sum   'Ba2 Cu1'
_cell_volume   121.94239633
loop_
 _symmetry_equiv_pos_site_id
 _symmetry_equiv_pos_as_xyz
  1  'x, y, z'
loop_
 _atom_type_symbol
  Ba
  Cu
loop_
 _atom_site_type_symbol
 _atom_site_label
 _atom_site_symmetry_multiplicity
 _atom_site_fract_x
 _atom_site_fract_y
 _atom_site_fract_z
 _atom_site_occupancy
  Ba  Ba0  1  0.87426613  0.87426613  0.00000000  1
  Ba  Ba1  1  0.12573387  0.12573387  0.00000000  1
  Cu  Cu0  1  0.50000000  0.50000000  0.00000000  1
