# generated using pymatgen
data_3350_Al3Pt
_symmetry_space_group_name_H-M   'Imm2'
_cell_length_a   5.01920447
_cell_length_b   5.01920447
_cell_length_c   5.01920447
_cell_angle_alpha   141.23487957
_cell_angle_beta   122.89628150
_cell_angle_gamma   71.16528324
_chemical_formula_structural   Al3Pt
_chemical_formula_sum   'Al3 Pt1'
_cell_volume   65.24729926
loop_
 _symmetry_equiv_pos_site_id
 _symmetry_equiv_pos_as_xyz
  1  'x, y, z'
loop_
 _atom_type_symbol
  Al
  Pt
loop_
 _atom_site_type_symbol
 _atom_site_label
 _atom_site_symmetry_multiplicity
 _atom_site_fract_x
 _atom_site_fract_y
 _atom_site_fract_z
 _atom_site_occupancy
  Al  Al0  1  0.03488408  0.02509324  0.00979084  1
  Al  Al1  1  0.48469760  0.47490676  0.00979084  1
  Al  Al2  1  0.85704968  0.25000000  0.60704968  1
  Pt  Pt0  1  0.45670197  0.75000000  0.70670197  1
