# generated using pymatgen
data_3352_Ba2Sb
_symmetry_space_group_name_H-M   'Fmmm'
_cell_length_a   7.74734932
_cell_length_b   7.40421330
_cell_length_c   2.88614346
_cell_angle_alpha   85.79915037
_cell_angle_beta   72.39070828
_cell_angle_gamma   21.81014135
_chemical_formula_structural   Ba2Sb
_chemical_formula_sum   'Ba2 Sb1'
_cell_volume   47.49470023
loop_
 _symmetry_equiv_pos_site_id
 _symmetry_equiv_pos_as_xyz
  1  'x, y, z'
loop_
 _atom_type_symbol
  Ba
  Sb
loop_
 _atom_site_type_symbol
 _atom_site_label
 _atom_site_symmetry_multiplicity
 _atom_site_fract_x
 _atom_site_fract_y
 _atom_site_fract_z
 _atom_site_occupancy
  Ba  Ba0  1  0.83354978  0.83354978  0.16645022  1
  Ba  Ba1  1  0.16645022  0.16645022  0.83354978  1
  Sb  Sb0  1  0.50000000  0.50000000  0.50000000  1
