# generated using pymatgen
data_3361_Ca16W4
_symmetry_space_group_name_H-M   'I-43m'
_cell_length_a   9.66249826
_cell_length_b   9.66249826
_cell_length_c   9.66249826
_cell_angle_alpha   109.47122063
_cell_angle_beta   109.47122063
_cell_angle_gamma   109.47122063
_chemical_formula_structural   Ca16W4
_chemical_formula_sum   'Ca16 W4'
_cell_volume   694.45865532
loop_
 _symmetry_equiv_pos_site_id
 _symmetry_equiv_pos_as_xyz
  1  'x, y, z'
loop_
 _atom_type_symbol
  Ca
  W
loop_
 _atom_site_type_symbol
 _atom_site_label
 _atom_site_symmetry_multiplicity
 _atom_site_fract_x
 _atom_site_fract_y
 _atom_site_fract_z
 _atom_site_occupancy
  Ca  Ca0  1  0.60926838  0.60926838  0.60926838  1
  Ca  Ca1  1  0.39073162  0.00000000  0.00000000  1
  Ca  Ca2  1  1.00000000  0.39073162  0.00000000  1
  Ca  Ca3  1  1.00000000  1.00000000  0.39073162  1
  Ca  Ca4  1  0.72368806  0.72368806  0.00000000  1
  Ca  Ca5  1  0.27631194  0.27631194  0.00000000  1
  Ca  Ca6  1  0.72368806  0.00000000  0.72368806  1
  Ca  Ca7  1  0.27631194  0.00000000  0.27631194  1
  Ca  Ca8  1  1.00000000  0.72368806  0.72368806  1
  Ca  Ca9  1  1.00000000  0.27631194  0.27631194  1
  Ca  Ca10  1  0.25003883  0.75003883  0.50000000  1
  Ca  Ca11  1  0.74996117  0.24996117  0.50000000  1
  Ca  Ca12  1  0.75003883  0.50000000  0.25003883  1
  Ca  Ca13  1  0.24996117  0.50000000  0.74996117  1
  Ca  Ca14  1  0.50000000  0.25003883  0.75003883  1
  Ca  Ca15  1  0.50000000  0.74996117  0.24996117  1
  W  W0  1  0.33214573  0.33214573  0.33214573  1
  W  W1  1  0.66785427  0.00000000  0.00000000  1
  W  W2  1  0.00000000  0.66785427  0.00000000  1
  W  W3  1  0.00000000  0.00000000  0.66785427  1
