# generated using pymatgen
data_3362_Mn3Ge
_symmetry_space_group_name_H-M   'Immm'
_cell_length_a   4.70127597
_cell_length_b   4.70127597
_cell_length_c   4.70127597
_cell_angle_alpha   143.94837829
_cell_angle_beta   130.79906003
_cell_angle_gamma   62.49052609
_chemical_formula_structural   Mn3Ge
_chemical_formula_sum   'Ge1 Mn3'
_cell_volume   45.77502028
loop_
 _symmetry_equiv_pos_site_id
 _symmetry_equiv_pos_as_xyz
  1  'x, y, z'
loop_
 _atom_type_symbol
  Ge
  Mn
loop_
 _atom_site_type_symbol
 _atom_site_label
 _atom_site_symmetry_multiplicity
 _atom_site_fract_x
 _atom_site_fract_y
 _atom_site_fract_z
 _atom_site_occupancy
  Ge  Ge0  1  0.00000000  0.00000000  0.00000000  1
  Mn  Mn0  1  0.75225896  0.25225896  0.50000000  1
  Mn  Mn1  1  0.50000000  0.50000000  0.00000000  1
  Mn  Mn2  1  0.24774104  0.74774104  0.50000000  1
