# generated using pymatgen
data_3363_EuI
_symmetry_space_group_name_H-M   'R -3 m'
_cell_length_a   5.09503939
_cell_length_b   5.09503939
_cell_length_c   5.09503894
_cell_angle_alpha   48.42841538
_cell_angle_beta   48.42841538
_cell_angle_gamma   48.42842764
_chemical_formula_structural   EuI
_chemical_formula_sum   'Eu1 I1'
_cell_volume   67.88360511
loop_
 _symmetry_equiv_pos_site_id
 _symmetry_equiv_pos_as_xyz
  1  'x, y, z'
loop_
 _atom_type_symbol
  Eu
  I
loop_
 _atom_site_type_symbol
 _atom_site_label
 _atom_site_symmetry_multiplicity
 _atom_site_fract_x
 _atom_site_fract_y
 _atom_site_fract_z
 _atom_site_occupancy
  Eu  Eu0  1  0.00000000  0.00000000  0.00000000  1
  I  I0  1  0.50000000  0.50000000  0.50000000  1
