# generated using pymatgen
data_3367_Al6Cu18
_symmetry_space_group_name_H-M   'Pmmn'
_cell_length_a   4.54607502
_cell_length_b   5.15152515
_cell_length_c   12.70655298
_cell_angle_alpha   90.00000000
_cell_angle_beta   90.00000000
_cell_angle_gamma   90.00000000
_chemical_formula_structural   Al6Cu18
_chemical_formula_sum   'Al6 Cu18'
_cell_volume   297.57755713
loop_
 _symmetry_equiv_pos_site_id
 _symmetry_equiv_pos_as_xyz
  1  'x, y, z'
loop_
 _atom_type_symbol
  Al
  Cu
loop_
 _atom_site_type_symbol
 _atom_site_label
 _atom_site_symmetry_multiplicity
 _atom_site_fract_x
 _atom_site_fract_y
 _atom_site_fract_z
 _atom_site_occupancy
  Al  Al0  1  0.01164713  0.25000000  0.75000000  1
  Al  Al1  1  0.66261374  0.25000000  0.41546517  1
  Al  Al2  1  0.66261374  0.25000000  0.08453483  1
  Al  Al3  1  0.98835287  0.75000000  0.25000000  1
  Al  Al4  1  0.33738626  0.75000000  0.91546517  1
  Al  Al5  1  0.33738626  0.75000000  0.58453483  1
  Cu  Cu0  1  0.16227387  0.99935192  0.41733226  1
  Cu  Cu1  1  0.16227387  0.99935192  0.08266774  1
  Cu  Cu2  1  0.51467205  0.00018493  0.75000000  1
  Cu  Cu3  1  0.48532795  0.99981507  0.25000000  1
  Cu  Cu4  1  0.83772613  0.00064808  0.91733226  1
  Cu  Cu5  1  0.83772613  0.00064808  0.58266774  1
  Cu  Cu6  1  0.98795054  0.25000000  0.25000000  1
  Cu  Cu7  1  0.33932363  0.25000000  0.91650543  1
  Cu  Cu8  1  0.33932363  0.25000000  0.58349457  1
  Cu  Cu9  1  0.16227387  0.50064808  0.41733226  1
  Cu  Cu10  1  0.16227387  0.50064808  0.08266774  1
  Cu  Cu11  1  0.51467205  0.49981507  0.75000000  1
  Cu  Cu12  1  0.48532795  0.50018493  0.25000000  1
  Cu  Cu13  1  0.83772613  0.49935192  0.91733226  1
  Cu  Cu14  1  0.83772613  0.49935192  0.58266774  1
  Cu  Cu15  1  0.01204946  0.75000000  0.75000000  1
  Cu  Cu16  1  0.66067637  0.75000000  0.41650543  1
  Cu  Cu17  1  0.66067637  0.75000000  0.08349457  1
