# generated using pymatgen
data_3370_Ag4Pt8
_symmetry_space_group_name_H-M   'P-1'
_cell_length_a   4.89148027
_cell_length_b   6.38843617
_cell_length_c   6.96094264
_cell_angle_alpha   111.32924753
_cell_angle_beta   90.38931374
_cell_angle_gamma   104.59430058
_chemical_formula_structural   Ag4Pt8
_chemical_formula_sum   'Ag4 Pt8'
_cell_volume   194.91230689
loop_
 _symmetry_equiv_pos_site_id
 _symmetry_equiv_pos_as_xyz
  1  'x, y, z'
loop_
 _atom_type_symbol
  Ag
  Pt
loop_
 _atom_site_type_symbol
 _atom_site_label
 _atom_site_symmetry_multiplicity
 _atom_site_fract_x
 _atom_site_fract_y
 _atom_site_fract_z
 _atom_site_occupancy
  Ag  Ag0  1  0.99804689  0.99573923  0.99983044  1
  Ag  Ag1  1  0.58115598  0.24462685  0.08314378  1
  Ag  Ag2  1  0.33551068  0.00537315  0.33352288  1
  Ag  Ag3  1  0.91861977  0.25426077  0.41683622  1
  Pt  Pt0  1  0.17088147  0.50880318  0.16605921  1
  Pt  Pt1  1  0.74578519  0.74119682  0.25060746  1
  Pt  Pt2  1  0.50277641  0.51370683  0.50550499  1
  Pt  Pt3  1  0.08473071  0.75668673  0.58279675  1
  Pt  Pt4  1  0.66445041  0.99697624  0.66537719  1
  Pt  Pt5  1  0.25221626  0.25302376  0.75128948  1
  Pt  Pt6  1  0.83193596  0.49331327  0.83386992  1
  Pt  Pt7  1  0.41389026  0.73629317  0.91116167  1
