# generated using pymatgen
data_3374_Rh5W3
_symmetry_space_group_name_H-M   'Cmmm'
_cell_length_a   5.52818052
_cell_length_b   5.52818052
_cell_length_c   3.86953691
_cell_angle_alpha   90.00000000
_cell_angle_beta   90.00000000
_cell_angle_gamma   90.35212063
_chemical_formula_structural   Rh5W3
_chemical_formula_sum   'Rh5 W3'
_cell_volume   118.25383226
loop_
 _symmetry_equiv_pos_site_id
 _symmetry_equiv_pos_as_xyz
  1  'x, y, z'
loop_
 _atom_type_symbol
  Rh
  W
loop_
 _atom_site_type_symbol
 _atom_site_label
 _atom_site_symmetry_multiplicity
 _atom_site_fract_x
 _atom_site_fract_y
 _atom_site_fract_z
 _atom_site_occupancy
  Rh  Rh0  1  0.00000000  0.00000000  0.00000000  1
  Rh  Rh1  1  0.00000000  0.50000000  0.00000000  1
  Rh  Rh2  1  0.50000000  1.00000000  0.00000000  1
  Rh  Rh3  1  0.74585640  0.25414360  0.50000000  1
  Rh  Rh4  1  0.25414360  0.74585640  0.50000000  1
  W  W0  1  0.50000000  0.50000000  0.00000000  1
  W  W1  1  0.24642492  0.24642492  0.50000000  1
  W  W2  1  0.75357508  0.75357508  0.50000000  1
