# generated using pymatgen
data_3375_Ga2Sr6
_symmetry_space_group_name_H-M   'Cmcm'
_cell_length_a   8.24597555
_cell_length_b   8.24597555
_cell_length_c   6.44185074
_cell_angle_alpha   90.00000000
_cell_angle_beta   90.00000000
_cell_angle_gamma   122.82754321
_chemical_formula_structural   Ga2Sr6
_chemical_formula_sum   'Ga2 Sr6'
_cell_volume   368.07155676
loop_
 _symmetry_equiv_pos_site_id
 _symmetry_equiv_pos_as_xyz
  1  'x, y, z'
loop_
 _atom_type_symbol
  Ga
  Sr
loop_
 _atom_site_type_symbol
 _atom_site_label
 _atom_site_symmetry_multiplicity
 _atom_site_fract_x
 _atom_site_fract_y
 _atom_site_fract_z
 _atom_site_occupancy
  Ga  Ga0  1  0.59509709  0.40490291  0.25000000  1
  Ga  Ga1  1  0.40490291  0.59509709  0.75000000  1
  Sr  Sr0  1  0.92009391  0.07990609  0.75000000  1
  Sr  Sr1  1  0.07990609  0.92009391  0.25000000  1
  Sr  Sr2  1  0.91688950  0.57877419  0.75000000  1
  Sr  Sr3  1  0.08311050  0.42122581  0.25000000  1
  Sr  Sr4  1  0.42122581  0.08311050  0.75000000  1
  Sr  Sr5  1  0.57877419  0.91688950  0.25000000  1
