# generated using pymatgen
data_3377_V16P8
_symmetry_space_group_name_H-M   'Fd -3 m'
_cell_length_a   7.65878053
_cell_length_b   7.65878053
_cell_length_c   7.65878053
_cell_angle_alpha   60.00000000
_cell_angle_beta   60.00000000
_cell_angle_gamma   60.00000000
_chemical_formula_structural   V16P8
_chemical_formula_sum   'P8 V16'
_cell_volume   317.66098355
loop_
 _symmetry_equiv_pos_site_id
 _symmetry_equiv_pos_as_xyz
  1  'x, y, z'
loop_
 _atom_type_symbol
  P
  V
loop_
 _atom_site_type_symbol
 _atom_site_label
 _atom_site_symmetry_multiplicity
 _atom_site_fract_x
 _atom_site_fract_y
 _atom_site_fract_z
 _atom_site_occupancy
  P  P0  1  0.72878430  0.72878430  0.81364710  1
  P  P1  1  0.72878430  0.72878430  0.22878430  1
  P  P2  1  0.72878430  0.31364710  0.22878430  1
  P  P3  1  0.31364710  0.72878430  0.22878430  1
  P  P4  1  0.27121570  0.27121570  0.18635290  1
  P  P5  1  0.27121570  0.27121570  0.77121570  1
  P  P6  1  0.27121570  0.68635290  0.77121570  1
  P  P7  1  0.68635290  0.27121570  0.77121570  1
  V  V0  1  0.00000000  0.50000000  0.00000000  1
  V  V1  1  0.50000000  0.00000000  0.00000000  1
  V  V2  1  0.50000000  0.50000000  0.00000000  1
  V  V3  1  0.50000000  0.50000000  0.50000000  1
  V  V4  1  0.91481730  0.91481730  0.83518270  1
  V  V5  1  0.91481730  0.33518270  0.83518270  1
  V  V6  1  0.33518270  0.91481730  0.83518270  1
  V  V7  1  0.91481730  0.33518270  0.41481730  1
  V  V8  1  0.33518270  0.91481730  0.41481730  1
  V  V9  1  0.33518270  0.33518270  0.41481730  1
  V  V10  1  0.08518270  0.08518270  0.16481730  1
  V  V11  1  0.08518270  0.66481730  0.16481730  1
  V  V12  1  0.66481730  0.08518270  0.16481730  1
  V  V13  1  0.08518270  0.66481730  0.58518270  1
  V  V14  1  0.66481730  0.08518270  0.58518270  1
  V  V15  1  0.66481730  0.66481730  0.58518270  1
