# generated using pymatgen
data_3378_Fe3Br
_symmetry_space_group_name_H-M   'I4/mmm'
_cell_length_a   4.89667841
_cell_length_b   4.89667841
_cell_length_c   4.89667841
_cell_angle_alpha   135.74236149
_cell_angle_beta   135.74236149
_cell_angle_gamma   64.37890084
_chemical_formula_structural   Fe3Br
_chemical_formula_sum   'Br1 Fe3'
_cell_volume   56.39665687
loop_
 _symmetry_equiv_pos_site_id
 _symmetry_equiv_pos_as_xyz
  1  'x, y, z'
loop_
 _atom_type_symbol
  Br
  Fe
loop_
 _atom_site_type_symbol
 _atom_site_label
 _atom_site_symmetry_multiplicity
 _atom_site_fract_x
 _atom_site_fract_y
 _atom_site_fract_z
 _atom_site_occupancy
  Br  Br0  1  0.00000000  0.00000000  0.00000000  1
  Fe  Fe0  1  0.49999976  0.49999976  0.00000000  1
  Fe  Fe1  1  0.74999961  0.24999988  0.49999973  1
  Fe  Fe2  1  0.24999988  0.74999961  0.49999973  1
