# generated using pymatgen
data_3380_Pd6I4
_symmetry_space_group_name_H-M   'R -3 c'
_cell_length_a   6.73461312
_cell_length_b   6.73461474
_cell_length_c   7.17784344
_cell_angle_alpha   117.97752563
_cell_angle_beta   62.02247538
_cell_angle_gamma   119.99999695
_chemical_formula_structural   Pd6I4
_chemical_formula_sum   'I4 Pd6'
_cell_volume   236.98736782
loop_
 _symmetry_equiv_pos_site_id
 _symmetry_equiv_pos_as_xyz
  1  'x, y, z'
loop_
 _atom_type_symbol
  I
  Pd
loop_
 _atom_site_type_symbol
 _atom_site_label
 _atom_site_symmetry_multiplicity
 _atom_site_fract_x
 _atom_site_fract_y
 _atom_site_fract_z
 _atom_site_occupancy
  I  I0  1  0.61351159  0.38648868  0.15946592  1
  I  I1  1  0.88648903  0.11351142  0.34053421  1
  I  I2  1  0.11351136  0.88648877  0.65946605  1
  I  I3  1  0.38648880  0.61351152  0.84053434  1
  Pd  Pd0  1  0.47951974  0.75000009  0.25000006  1
  Pd  Pd1  1  0.02048012  0.52048004  0.25000007  1
  Pd  Pd2  1  0.25000035  0.97952006  0.25000007  1
  Pd  Pd3  1  0.97951984  0.47952016  0.75000020  1
  Pd  Pd4  1  0.52047917  0.25000011  0.75000020  1
  Pd  Pd5  1  0.75000022  0.02048005  0.75000020  1
