# generated using pymatgen
data_3381_Mo4Ta2
_symmetry_space_group_name_H-M   'Pnnm'
_cell_length_a   3.88332200
_cell_length_b   6.87769987
_cell_length_c   4.48063989
_cell_angle_alpha   90.00000000
_cell_angle_beta   90.00000000
_cell_angle_gamma   90.00000000
_chemical_formula_structural   Mo4Ta2
_chemical_formula_sum   'Mo4 Ta2'
_cell_volume   119.67037839
loop_
 _symmetry_equiv_pos_site_id
 _symmetry_equiv_pos_as_xyz
  1  'x, y, z'
loop_
 _atom_type_symbol
  Mo
  Ta
loop_
 _atom_site_type_symbol
 _atom_site_label
 _atom_site_symmetry_multiplicity
 _atom_site_fract_x
 _atom_site_fract_y
 _atom_site_fract_z
 _atom_site_occupancy
  Mo  Mo0  1  0.16847456  0.38009582  0.00000000  1
  Mo  Mo1  1  0.33152544  0.88009582  0.50000000  1
  Mo  Mo2  1  0.66847456  0.11990418  0.50000000  1
  Mo  Mo3  1  0.83152544  0.61990418  0.00000000  1
  Ta  Ta0  1  0.00000000  0.00000000  0.00000000  1
  Ta  Ta1  1  0.50000000  0.50000000  0.50000000  1
