# generated using pymatgen
data_3384_Pd2As4
_symmetry_space_group_name_H-M   'Cmcm'
_cell_length_a   6.10331941
_cell_length_b   6.10331941
_cell_length_c   5.15305696
_cell_angle_alpha   90.00000000
_cell_angle_beta   90.00000000
_cell_angle_gamma   145.63593139
_chemical_formula_structural   Pd2As4
_chemical_formula_sum   'As4 Pd2'
_cell_volume   108.34832267
loop_
 _symmetry_equiv_pos_site_id
 _symmetry_equiv_pos_as_xyz
  1  'x, y, z'
loop_
 _atom_type_symbol
  As
  Pd
loop_
 _atom_site_type_symbol
 _atom_site_label
 _atom_site_symmetry_multiplicity
 _atom_site_fract_x
 _atom_site_fract_y
 _atom_site_fract_z
 _atom_site_occupancy
  As  As0  1  0.07527300  0.92472700  0.00000000  1
  As  As1  1  0.75123571  0.24876429  0.00000000  1
  As  As2  1  0.36917144  0.63082856  0.50000000  1
  As  As3  1  0.69320874  0.30679126  0.50000000  1
  Pd  Pd0  1  0.41405004  0.58594996  0.00000000  1
  Pd  Pd1  1  0.03039440  0.96960560  0.50000000  1
