# generated using pymatgen
data_3386_Ag5P
_symmetry_space_group_name_H-M   'F-43m'
_cell_length_a   5.45263355
_cell_length_b   5.45263355
_cell_length_c   5.45263355
_cell_angle_alpha   60.00000000
_cell_angle_beta   60.00000000
_cell_angle_gamma   60.00000000
_chemical_formula_structural   Ag5P
_chemical_formula_sum   'Ag5 P1'
_cell_volume   114.63148988
loop_
 _symmetry_equiv_pos_site_id
 _symmetry_equiv_pos_as_xyz
  1  'x, y, z'
loop_
 _atom_type_symbol
  Ag
  P
loop_
 _atom_site_type_symbol
 _atom_site_label
 _atom_site_symmetry_multiplicity
 _atom_site_fract_x
 _atom_site_fract_y
 _atom_site_fract_z
 _atom_site_occupancy
  Ag  Ag0  1  0.75000000  0.75000000  0.75000000  1
  Ag  Ag1  1  0.37505576  0.37505576  0.87483271  1
  Ag  Ag2  1  0.37505576  0.37505576  0.37505576  1
  Ag  Ag3  1  0.87483271  0.37505576  0.37505576  1
  Ag  Ag4  1  0.37505576  0.87483271  0.37505576  1
  P  P0  1  0.00000000  0.00000000  0.00000000  1
