# generated using pymatgen
data_3387_MoNb2
_symmetry_space_group_name_H-M   'Immm'
_cell_length_a   7.45850705
_cell_length_b   4.85371690
_cell_length_c   3.03700910
_cell_angle_alpha   90.00000000
_cell_angle_beta   90.00000000
_cell_angle_gamma   90.00000000
_chemical_formula_structural   MoNb2
_chemical_formula_sum   'Mo2 Nb4'
_cell_volume   109.94422941
loop_
 _symmetry_equiv_pos_site_id
 _symmetry_equiv_pos_as_xyz
  1  'x, y, z'
loop_
 _atom_type_symbol
  Mo
  Nb
loop_
 _atom_site_type_symbol
 _atom_site_label
 _atom_site_symmetry_multiplicity
 _atom_site_fract_x
 _atom_site_fract_y
 _atom_site_fract_z
 _atom_site_occupancy
  Mo  Mo0  1  0.00000000  0.00000000  0.00000000  1
  Mo  Mo1  1  0.50000000  0.50000000  0.50000000  1
  Nb  Nb0  1  0.18776040  0.49485115  0.00000000  1
  Nb  Nb1  1  0.31223960  0.99485115  0.50000000  1
  Nb  Nb2  1  0.68776040  0.00514885  0.50000000  1
  Nb  Nb3  1  0.81223960  0.50514885  0.00000000  1
