# generated using pymatgen
data_3391_Ni2V2
_symmetry_space_group_name_H-M   'Pmma'
_cell_length_a   4.17729910
_cell_length_b   2.50786929
_cell_length_c   4.47408675
_cell_angle_alpha   90.00000000
_cell_angle_beta   90.00000000
_cell_angle_gamma   90.00000000
_chemical_formula_structural   Ni2V2
_chemical_formula_sum   'Ni2 V2'
_cell_volume   46.87107026
loop_
 _symmetry_equiv_pos_site_id
 _symmetry_equiv_pos_as_xyz
  1  'x, y, z'
loop_
 _atom_type_symbol
  Ni
  V
loop_
 _atom_site_type_symbol
 _atom_site_label
 _atom_site_symmetry_multiplicity
 _atom_site_fract_x
 _atom_site_fract_y
 _atom_site_fract_z
 _atom_site_occupancy
  Ni  Ni0  1  0.25000000  0.00000000  0.16825032  1
  Ni  Ni1  1  0.75000000  0.00000000  0.83174968  1
  V  V0  1  0.75000000  0.50000000  0.32093127  1
  V  V1  1  0.25000000  0.50000000  0.67906873  1
