# generated using pymatgen
data_3393_Ag2Cu
_symmetry_space_group_name_H-M   'I4/mmm'
_cell_length_a   6.25977290
_cell_length_b   6.25977290
_cell_length_c   6.25977290
_cell_angle_alpha   153.68057826
_cell_angle_beta   153.68057826
_cell_angle_gamma   37.56404448
_chemical_formula_structural   Ag2Cu
_chemical_formula_sum   'Ag2 Cu1'
_cell_volume   48.14690374
loop_
 _symmetry_equiv_pos_site_id
 _symmetry_equiv_pos_as_xyz
  1  'x, y, z'
loop_
 _atom_type_symbol
  Ag
  Cu
loop_
 _atom_site_type_symbol
 _atom_site_label
 _atom_site_symmetry_multiplicity
 _atom_site_fract_x
 _atom_site_fract_y
 _atom_site_fract_z
 _atom_site_occupancy
  Ag  Ag0  1  0.98953896  0.98953896  0.00000000  1
  Ag  Ag1  1  0.67712770  0.67712770  0.00000000  1
  Cu  Cu0  1  0.33333333  0.33333333  0.00000000  1
