# generated using pymatgen
data_3395_IrP3
_symmetry_space_group_name_H-M   'P4/mmm'
_cell_length_a   2.94755026
_cell_length_b   2.94755026
_cell_length_c   6.54685677
_cell_angle_alpha   90.00000000
_cell_angle_beta   90.00000000
_cell_angle_gamma   90.00000000
_chemical_formula_structural   IrP3
_chemical_formula_sum   'Ir1 P3'
_cell_volume   56.87943556
loop_
 _symmetry_equiv_pos_site_id
 _symmetry_equiv_pos_as_xyz
  1  'x, y, z'
loop_
 _atom_type_symbol
  Ir
  P
loop_
 _atom_site_type_symbol
 _atom_site_label
 _atom_site_symmetry_multiplicity
 _atom_site_fract_x
 _atom_site_fract_y
 _atom_site_fract_z
 _atom_site_occupancy
  Ir  Ir0  1  0.00000000  0.00000000  0.00000000  1
  P  P0  1  0.50000000  0.50000000  0.23780567  1
  P  P1  1  0.00000000  0.00000000  0.50000000  1
  P  P2  1  0.50000000  0.50000000  0.76219433  1
