# generated using pymatgen
data_3396_AcSm
_symmetry_space_group_name_H-M   'P4/mmm'
_cell_length_a   3.84999814
_cell_length_b   5.44471957
_cell_length_c   5.20279166
_cell_angle_alpha   90.00000000
_cell_angle_beta   90.00000000
_cell_angle_gamma   45.00000000
_chemical_formula_structural   AcSm
_chemical_formula_sum   'Ac1 Sm1'
_cell_volume   77.11830459
loop_
 _symmetry_equiv_pos_site_id
 _symmetry_equiv_pos_as_xyz
  1  'x, y, z'
loop_
 _atom_type_symbol
  Ac
  Sm
loop_
 _atom_site_type_symbol
 _atom_site_label
 _atom_site_symmetry_multiplicity
 _atom_site_fract_x
 _atom_site_fract_y
 _atom_site_fract_z
 _atom_site_occupancy
  Ac  Ac0  1  0.00000000  0.00000000  0.00000000  1
  Sm  Sm0  1  0.00000000  0.49999966  0.49999913  1
