# generated using pymatgen
data_3401_Mo2Sr
_symmetry_space_group_name_H-M   'I4/mmm'
_cell_length_a   6.58344580
_cell_length_b   6.58344580
_cell_length_c   6.58344580
_cell_angle_alpha   150.62557047
_cell_angle_beta   150.62587241
_cell_angle_gamma   42.02368093
_chemical_formula_structural   Mo2Sr
_chemical_formula_sum   'Mo2 Sr1'
_cell_volume   68.49089699
loop_
 _symmetry_equiv_pos_site_id
 _symmetry_equiv_pos_as_xyz
  1  'x, y, z'
loop_
 _atom_type_symbol
  Mo
  Sr
loop_
 _atom_site_type_symbol
 _atom_site_label
 _atom_site_symmetry_multiplicity
 _atom_site_fract_x
 _atom_site_fract_y
 _atom_site_fract_z
 _atom_site_occupancy
  Mo  Mo0  1  0.70548136  0.70548136  0.00000000  1
  Mo  Mo1  1  0.29451864  0.29451864  0.00000000  1
  Sr  Sr0  1  0.00000000  0.00000000  0.00000000  1
