# generated using pymatgen
data_3403_BaCa5
_symmetry_space_group_name_H-M   'P4/mmm'
_cell_length_a   3.96703797
_cell_length_b   3.96703797
_cell_length_c   17.14338203
_cell_angle_alpha   90.00000000
_cell_angle_beta   90.00000000
_cell_angle_gamma   90.00000000
_chemical_formula_structural   BaCa5
_chemical_formula_sum   'Ba1 Ca5'
_cell_volume   269.79209330
loop_
 _symmetry_equiv_pos_site_id
 _symmetry_equiv_pos_as_xyz
  1  'x, y, z'
loop_
 _atom_type_symbol
  Ba
  Ca
loop_
 _atom_site_type_symbol
 _atom_site_label
 _atom_site_symmetry_multiplicity
 _atom_site_fract_x
 _atom_site_fract_y
 _atom_site_fract_z
 _atom_site_occupancy
  Ba  Ba0  1  0.50000000  0.50000000  0.00000000  1
  Ca  Ca0  1  0.00000000  0.00000000  0.81744067  1
  Ca  Ca1  1  0.00000000  0.00000000  0.18255933  1
  Ca  Ca2  1  0.50000000  0.50000000  0.65863476  1
  Ca  Ca3  1  0.50000000  0.50000000  0.34136524  1
  Ca  Ca4  1  0.00000000  0.00000000  0.50000000  1
