# generated using pymatgen
data_3406_Fe2Sb4
_symmetry_space_group_name_H-M   'I4_1/amd'
_cell_length_a   13.15405685
_cell_length_b   13.15405685
_cell_length_c   13.15405685
_cell_angle_alpha   166.24751527
_cell_angle_beta   166.24751527
_cell_angle_gamma   19.49621811
_chemical_formula_structural   Fe2Sb4
_chemical_formula_sum   'Fe2 Sb4'
_cell_volume   128.61568845
loop_
 _symmetry_equiv_pos_site_id
 _symmetry_equiv_pos_as_xyz
  1  'x, y, z'
loop_
 _atom_type_symbol
  Fe
  Sb
loop_
 _atom_site_type_symbol
 _atom_site_label
 _atom_site_symmetry_multiplicity
 _atom_site_fract_x
 _atom_site_fract_y
 _atom_site_fract_z
 _atom_site_occupancy
  Fe  Fe0  1  0.00000000  0.00000000  0.00000000  1
  Fe  Fe1  1  0.25000000  0.75000000  0.50000000  1
  Sb  Sb0  1  0.56176792  0.56176792  0.00000000  1
  Sb  Sb1  1  0.68823208  0.18823208  0.50000000  1
  Sb  Sb2  1  0.43823208  0.43823208  0.00000000  1
  Sb  Sb3  1  0.81176792  0.31176792  0.50000000  1
