# generated using pymatgen
data_3408_Ac3Fe
_symmetry_space_group_name_H-M   'Fm -3 m'
_cell_length_a   5.66054110
_cell_length_b   5.66054110
_cell_length_c   5.66054110
_cell_angle_alpha   60.00000000
_cell_angle_beta   60.00000000
_cell_angle_gamma   60.00000000
_chemical_formula_structural   Ac3Fe
_chemical_formula_sum   'Ac3 Fe1'
_cell_volume   128.25043515
loop_
 _symmetry_equiv_pos_site_id
 _symmetry_equiv_pos_as_xyz
  1  'x, y, z'
loop_
 _atom_type_symbol
  Ac
  Fe
loop_
 _atom_site_type_symbol
 _atom_site_label
 _atom_site_symmetry_multiplicity
 _atom_site_fract_x
 _atom_site_fract_y
 _atom_site_fract_z
 _atom_site_occupancy
  Ac  Ac0  1  0.00000000  0.00000000  0.00000000  1
  Ac  Ac1  1  0.24999956  0.24999956  0.24999956  1
  Ac  Ac2  1  0.50000037  0.50000037  0.50000037  1
  Fe  Fe0  1  0.74999994  0.74999994  0.74999994  1
