# generated using pymatgen
data_340_Ag2Ge2
_symmetry_space_group_name_H-M   'Pmmn'
_cell_length_a   3.00632890
_cell_length_b   4.22746655
_cell_length_c   5.83196574
_cell_angle_alpha   90.00000000
_cell_angle_beta   90.00000000
_cell_angle_gamma   90.00000000
_chemical_formula_structural   Ag2Ge2
_chemical_formula_sum   'Ag2 Ge2'
_cell_volume   74.11935575
loop_
 _symmetry_equiv_pos_site_id
 _symmetry_equiv_pos_as_xyz
  1  'x, y, z'
loop_
 _atom_type_symbol
  Ag
  Ge
loop_
 _atom_site_type_symbol
 _atom_site_label
 _atom_site_symmetry_multiplicity
 _atom_site_fract_x
 _atom_site_fract_y
 _atom_site_fract_z
 _atom_site_occupancy
  Ag  Ag0  1  0.00000000  0.00000000  0.99935603  1
  Ag  Ag1  1  0.50000000  0.50000000  0.75064397  1
  Ge  Ge0  1  0.00000000  0.00000000  0.50223594  1
  Ge  Ge1  1  0.50000000  0.50000000  0.24776406  1
