# generated using pymatgen
data_3410_SrAs4
_symmetry_space_group_name_H-M   'I4/m'
_cell_length_a   6.19808470
_cell_length_b   6.19808470
_cell_length_c   6.19808470
_cell_angle_alpha   94.99709913
_cell_angle_beta   94.99709913
_cell_angle_gamma   145.66860504
_chemical_formula_structural   SrAs4
_chemical_formula_sum   'As4 Sr1'
_cell_volume   128.30556796
loop_
 _symmetry_equiv_pos_site_id
 _symmetry_equiv_pos_as_xyz
  1  'x, y, z'
loop_
 _atom_type_symbol
  As
  Sr
loop_
 _atom_site_type_symbol
 _atom_site_label
 _atom_site_symmetry_multiplicity
 _atom_site_fract_x
 _atom_site_fract_y
 _atom_site_fract_z
 _atom_site_occupancy
  As  As0  1  0.80232245  0.33604316  0.13836561  1
  As  As1  1  0.33604316  0.19767755  0.53372071  1
  As  As2  1  0.19767755  0.66395684  0.86163439  1
  As  As3  1  0.66395684  0.80232245  0.46627929  1
  Sr  Sr0  1  0.00000000  0.00000000  0.00000000  1
