# generated using pymatgen
data_3412_Sn12Sb17
_symmetry_space_group_name_H-M   'I-43m'
_cell_length_a   10.52961222
_cell_length_b   10.52961222
_cell_length_c   10.52961222
_cell_angle_alpha   109.47122063
_cell_angle_beta   109.47122063
_cell_angle_gamma   109.47122063
_chemical_formula_structural   Sn12Sb17
_chemical_formula_sum   'Sb17 Sn12'
_cell_volume   898.70103475
loop_
 _symmetry_equiv_pos_site_id
 _symmetry_equiv_pos_as_xyz
  1  'x, y, z'
loop_
 _atom_type_symbol
  Sb
  Sn
loop_
 _atom_site_type_symbol
 _atom_site_label
 _atom_site_symmetry_multiplicity
 _atom_site_fract_x
 _atom_site_fract_y
 _atom_site_fract_z
 _atom_site_occupancy
  Sb  Sb0  1  0.73289404  0.00000000  0.49379182  1
  Sb  Sb1  1  0.49379182  0.00000000  0.73289404  1
  Sb  Sb2  1  0.50620818  0.23910222  0.50620818  1
  Sb  Sb3  1  0.26710596  0.76089778  0.26710596  1
  Sb  Sb4  1  0.00000000  0.73289404  0.49379182  1
  Sb  Sb5  1  0.00000000  0.49379182  0.73289404  1
  Sb  Sb6  1  0.76089778  0.26710596  0.26710596  1
  Sb  Sb7  1  0.23910222  0.50620818  0.50620818  1
  Sb  Sb8  1  0.26710596  0.26710596  0.76089778  1
  Sb  Sb9  1  0.50620818  0.50620818  0.23910222  1
  Sb  Sb10  1  0.73289404  0.49379182  0.00000000  1
  Sb  Sb11  1  0.49379182  0.73289404  0.00000000  1
  Sb  Sb12  1  0.00000000  0.00000000  0.71208556  1
  Sb  Sb13  1  0.71208556  0.00000000  0.00000000  1
  Sb  Sb14  1  0.28791444  0.28791444  0.28791444  1
  Sb  Sb15  1  0.00000000  0.71208556  0.00000000  1
  Sb  Sb16  1  0.00000000  0.00000000  0.00000000  1
  Sn  Sn0  1  0.20129664  0.00000000  0.46190518  1
  Sn  Sn1  1  0.46190518  0.00000000  0.20129664  1
  Sn  Sn2  1  0.53809482  0.73939146  0.53809482  1
  Sn  Sn3  1  0.79870336  0.26060854  0.79870336  1
  Sn  Sn4  1  0.00000000  0.20129664  0.46190518  1
  Sn  Sn5  1  1.00000000  0.46190518  0.20129664  1
  Sn  Sn6  1  0.26060854  0.79870336  0.79870336  1
  Sn  Sn7  1  0.73939146  0.53809482  0.53809482  1
  Sn  Sn8  1  0.79870336  0.79870336  0.26060854  1
  Sn  Sn9  1  0.53809482  0.53809482  0.73939146  1
  Sn  Sn10  1  0.20129664  0.46190518  0.00000000  1
  Sn  Sn11  1  0.46190518  0.20129664  0.00000000  1
