# generated using pymatgen
data_3413_Al2Sb2
_symmetry_space_group_name_H-M   'P4/nmm'
_cell_length_a   3.84932370
_cell_length_b   3.85120903
_cell_length_c   6.66712252
_cell_angle_alpha   90.00000000
_cell_angle_beta   90.00000000
_cell_angle_gamma   90.00000000
_chemical_formula_structural   Al2Sb2
_chemical_formula_sum   'Al2 Sb2'
_cell_volume   98.83709244
loop_
 _symmetry_equiv_pos_site_id
 _symmetry_equiv_pos_as_xyz
  1  'x, y, z'
loop_
 _atom_type_symbol
  Al
  Sb
loop_
 _atom_site_type_symbol
 _atom_site_label
 _atom_site_symmetry_multiplicity
 _atom_site_fract_x
 _atom_site_fract_y
 _atom_site_fract_z
 _atom_site_occupancy
  Al  Al0  1  0.00000000  0.00000000  0.01327438  1
  Al  Al1  1  0.50000000  0.50000000  0.73672562  1
  Sb  Sb0  1  0.00000000  0.00000000  0.59284776  1
  Sb  Sb1  1  0.50000000  0.50000000  0.15715224  1
