# generated using pymatgen
data_3424_W2Sb6
_symmetry_space_group_name_H-M   'Pmmn'
_cell_length_a   4.93238114
_cell_length_b   5.29271705
_cell_length_c   6.89841890
_cell_angle_alpha   90.00000000
_cell_angle_beta   90.00000000
_cell_angle_gamma   90.00000000
_chemical_formula_structural   W2Sb6
_chemical_formula_sum   'Sb6 W2'
_cell_volume   180.08803880
loop_
 _symmetry_equiv_pos_site_id
 _symmetry_equiv_pos_as_xyz
  1  'x, y, z'
loop_
 _atom_type_symbol
  Sb
  W
loop_
 _atom_site_type_symbol
 _atom_site_label
 _atom_site_symmetry_multiplicity
 _atom_site_fract_x
 _atom_site_fract_y
 _atom_site_fract_z
 _atom_site_occupancy
  Sb  Sb0  1  0.50000000  0.64116591  0.00000000  1
  Sb  Sb1  1  0.00000000  0.35883409  0.50000000  1
  Sb  Sb2  1  0.00000000  0.80727089  0.25180088  1
  Sb  Sb3  1  0.00000000  0.80727089  0.74819912  1
  Sb  Sb4  1  0.50000000  0.19272911  0.75180088  1
  Sb  Sb5  1  0.50000000  0.19272911  0.24819912  1
  W  W0  1  0.00000000  0.29819176  0.00000000  1
  W  W1  1  0.50000000  0.70180824  0.50000000  1
