# generated using pymatgen
data_3428_Fe4Ni
_symmetry_space_group_name_H-M   'I4/mmm'
_cell_length_a   3.37847804
_cell_length_b   5.58661546
_cell_length_c   3.37847804
_cell_angle_alpha   72.39984169
_cell_angle_beta   90.00000000
_cell_angle_gamma   107.60015831
_chemical_formula_structural   Fe4Ni
_chemical_formula_sum   'Fe4 Ni1'
_cell_volume   57.64208349
loop_
 _symmetry_equiv_pos_site_id
 _symmetry_equiv_pos_as_xyz
  1  'x, y, z'
loop_
 _atom_type_symbol
  Fe
  Ni
loop_
 _atom_site_type_symbol
 _atom_site_label
 _atom_site_symmetry_multiplicity
 _atom_site_fract_x
 _atom_site_fract_y
 _atom_site_fract_z
 _atom_site_occupancy
  Fe  Fe0  1  0.75000000  0.50000000  0.75000000  1
  Fe  Fe1  1  0.25000000  0.50000000  0.25000000  1
  Fe  Fe2  1  0.39889690  0.79779379  0.60110310  1
  Fe  Fe3  1  0.60110310  0.20220621  0.39889690  1
  Ni  Ni0  1  0.00000000  0.00000000  0.00000000  1
