# generated using pymatgen
data_3433_Au3Br
_symmetry_space_group_name_H-M   'P4/mmm'
_cell_length_a   4.44265225
_cell_length_b   4.44265225
_cell_length_c   4.03230491
_cell_angle_alpha   90.00000000
_cell_angle_beta   90.00000000
_cell_angle_gamma   90.00000000
_chemical_formula_structural   Au3Br
_chemical_formula_sum   'Au3 Br1'
_cell_volume   79.58624320
loop_
 _symmetry_equiv_pos_site_id
 _symmetry_equiv_pos_as_xyz
  1  'x, y, z'
loop_
 _atom_type_symbol
  Au
  Br
loop_
 _atom_site_type_symbol
 _atom_site_label
 _atom_site_symmetry_multiplicity
 _atom_site_fract_x
 _atom_site_fract_y
 _atom_site_fract_z
 _atom_site_occupancy
  Au  Au0  1  0.00000000  0.00000000  0.00000000  1
  Au  Au1  1  0.50000000  0.00000000  0.50000000  1
  Au  Au2  1  0.50000000  0.50000000  0.00000000  1
  Br  Br0  1  0.00000000  0.50000000  0.50000000  1
