# generated using pymatgen
data_3436_In3Sr
_symmetry_space_group_name_H-M   'Imm2'
_cell_length_a   6.54328728
_cell_length_b   6.54328728
_cell_length_c   6.54328728
_cell_angle_alpha   147.39490665
_cell_angle_beta   125.88165213
_cell_angle_gamma   64.62649101
_chemical_formula_structural   In3Sr
_chemical_formula_sum   'In3 Sr1'
_cell_volume   120.93682774
loop_
 _symmetry_equiv_pos_site_id
 _symmetry_equiv_pos_as_xyz
  1  'x, y, z'
loop_
 _atom_type_symbol
  In
  Sr
loop_
 _atom_site_type_symbol
 _atom_site_label
 _atom_site_symmetry_multiplicity
 _atom_site_fract_x
 _atom_site_fract_y
 _atom_site_fract_z
 _atom_site_occupancy
  In  In0  1  0.99884714  0.99415546  0.00469168  1
  In  In1  1  0.51053623  0.50584454  0.00469168  1
  In  In2  1  0.91609034  0.25000000  0.66609034  1
  Sr  Sr0  1  0.40785963  0.75000000  0.65785963  1
