# generated using pymatgen
data_3438_Al2Pt2
_symmetry_space_group_name_H-M   'Pmmn'
_cell_length_a   2.85235616
_cell_length_b   4.80555094
_cell_length_c   4.42199118
_cell_angle_alpha   90.00000000
_cell_angle_beta   90.00000000
_cell_angle_gamma   90.00000000
_chemical_formula_structural   Al2Pt2
_chemical_formula_sum   'Al2 Pt2'
_cell_volume   60.61286468
loop_
 _symmetry_equiv_pos_site_id
 _symmetry_equiv_pos_as_xyz
  1  'x, y, z'
loop_
 _atom_type_symbol
  Al
  Pt
loop_
 _atom_site_type_symbol
 _atom_site_label
 _atom_site_symmetry_multiplicity
 _atom_site_fract_x
 _atom_site_fract_y
 _atom_site_fract_z
 _atom_site_occupancy
  Al  Al0  1  0.00000000  0.00000000  0.04632823  1
  Al  Al1  1  0.50000000  0.50000000  0.78700510  1
  Pt  Pt0  1  0.50000000  0.00000000  0.55620325  1
  Pt  Pt1  1  0.00000000  0.50000000  0.27713008  1
