# generated using pymatgen
data_3443_Ga6Sb2
_symmetry_space_group_name_H-M   'Pmmn'
_cell_length_a   5.18146502
_cell_length_b   5.29044945
_cell_length_c   6.27708975
_cell_angle_alpha   90.00000000
_cell_angle_beta   90.00000000
_cell_angle_gamma   90.00000000
_chemical_formula_structural   Ga6Sb2
_chemical_formula_sum   'Ga6 Sb2'
_cell_volume   172.06933406
loop_
 _symmetry_equiv_pos_site_id
 _symmetry_equiv_pos_as_xyz
  1  'x, y, z'
loop_
 _atom_type_symbol
  Ga
  Sb
loop_
 _atom_site_type_symbol
 _atom_site_label
 _atom_site_symmetry_multiplicity
 _atom_site_fract_x
 _atom_site_fract_y
 _atom_site_fract_z
 _atom_site_occupancy
  Ga  Ga0  1  0.50000000  0.67456256  0.00000000  1
  Ga  Ga1  1  0.00000000  0.32543744  0.50000000  1
  Ga  Ga2  1  0.00000000  0.85059022  0.25905458  1
  Ga  Ga3  1  0.00000000  0.85059022  0.74094542  1
  Ga  Ga4  1  0.50000000  0.14940978  0.75905458  1
  Ga  Ga5  1  0.50000000  0.14940978  0.24094542  1
  Sb  Sb0  1  0.00000000  0.36483211  0.00000000  1
  Sb  Sb1  1  0.50000000  0.63516789  0.50000000  1
