# generated using pymatgen
data_3446_Au3K
_symmetry_space_group_name_H-M   'Immm'
_cell_length_a   6.46217556
_cell_length_b   6.46217556
_cell_length_c   6.46217556
_cell_angle_alpha   153.96870687
_cell_angle_beta   129.27470822
_cell_angle_gamma   57.88680147
_chemical_formula_structural   Au3K
_chemical_formula_sum   'Au3 K1'
_cell_volume   91.12746472
loop_
 _symmetry_equiv_pos_site_id
 _symmetry_equiv_pos_as_xyz
  1  'x, y, z'
loop_
 _atom_type_symbol
  Au
  K
loop_
 _atom_site_type_symbol
 _atom_site_label
 _atom_site_symmetry_multiplicity
 _atom_site_fract_x
 _atom_site_fract_y
 _atom_site_fract_z
 _atom_site_occupancy
  Au  Au0  1  0.04918620  0.96670514  0.08248106  1
  Au  Au1  1  0.61577592  0.53329486  0.08248106  1
  Au  Au2  1  0.83385512  0.25000000  0.58385512  1
  K  K0  1  0.33451609  0.75000000  0.58451609  1
