# generated using pymatgen
data_3448_Ag2Br6
_symmetry_space_group_name_H-M   'I4/mmm'
_cell_length_a   16.03425044
_cell_length_b   16.03425044
_cell_length_c   16.03425044
_cell_angle_alpha   165.65183016
_cell_angle_beta   165.65183016
_cell_angle_gamma   20.34511535
_chemical_formula_structural   Ag2Br6
_chemical_formula_sum   'Ag2 Br6'
_cell_volume   253.12890684
loop_
 _symmetry_equiv_pos_site_id
 _symmetry_equiv_pos_as_xyz
  1  'x, y, z'
loop_
 _atom_type_symbol
  Ag
  Br
loop_
 _atom_site_type_symbol
 _atom_site_label
 _atom_site_symmetry_multiplicity
 _atom_site_fract_x
 _atom_site_fract_y
 _atom_site_fract_z
 _atom_site_occupancy
  Ag  Ag0  1  0.62772297  0.62772297  0.00000000  1
  Ag  Ag1  1  0.37227703  0.37227703  0.00000000  1
  Br  Br0  1  0.50000000  0.00000000  0.50000000  1
  Br  Br1  1  0.00000000  0.50000000  0.50000000  1
  Br  Br2  1  0.25000000  0.75000000  0.50000000  1
  Br  Br3  1  0.75000000  0.25000000  0.50000000  1
  Br  Br4  1  0.87444859  0.87444859  0.00000000  1
  Br  Br5  1  0.12555141  0.12555141  0.00000000  1
