# generated using pymatgen
data_3452_Ag2Au2
_symmetry_space_group_name_H-M   'Cmme'
_cell_length_a   2.85541884
_cell_length_b   2.85541884
_cell_length_c   9.32442445
_cell_angle_alpha   90.00000000
_cell_angle_beta   90.00000000
_cell_angle_gamma   108.78244975
_chemical_formula_structural   Ag2Au2
_chemical_formula_sum   'Ag2 Au2'
_cell_volume   71.97738065
loop_
 _symmetry_equiv_pos_site_id
 _symmetry_equiv_pos_as_xyz
  1  'x, y, z'
loop_
 _atom_type_symbol
  Ag
  Au
loop_
 _atom_site_type_symbol
 _atom_site_label
 _atom_site_symmetry_multiplicity
 _atom_site_fract_x
 _atom_site_fract_y
 _atom_site_fract_z
 _atom_site_occupancy
  Ag  Ag0  1  0.00000000  1.00000000  0.99845363  1
  Ag  Ag1  1  0.50000000  0.50000000  0.75154637  1
  Au  Au0  1  1.00000000  0.00000000  0.50211913  1
  Au  Au1  1  0.50000000  0.50000000  0.24788087  1
