# generated using pymatgen
data_3454_Rh4Sm2
_symmetry_space_group_name_H-M   'Fd -3 m'
_cell_length_a   5.36580034
_cell_length_b   5.36580034
_cell_length_c   5.36580034
_cell_angle_alpha   120.00000000
_cell_angle_beta   90.00000000
_cell_angle_gamma   120.00000000
_chemical_formula_structural   Rh4Sm2
_chemical_formula_sum   'Rh4 Sm2'
_cell_volume   109.24171994
loop_
 _symmetry_equiv_pos_site_id
 _symmetry_equiv_pos_as_xyz
  1  'x, y, z'
loop_
 _atom_type_symbol
  Rh
  Sm
loop_
 _atom_site_type_symbol
 _atom_site_label
 _atom_site_symmetry_multiplicity
 _atom_site_fract_x
 _atom_site_fract_y
 _atom_site_fract_z
 _atom_site_occupancy
  Rh  Rh0  1  0.37500000  0.75000000  0.12500000  1
  Rh  Rh1  1  0.37500000  0.25000000  0.62500000  1
  Rh  Rh2  1  0.87500000  0.25000000  0.62500000  1
  Rh  Rh3  1  0.37500000  0.75000000  0.62500000  1
  Sm  Sm0  1  0.00000000  0.00000000  0.00000000  1
  Sm  Sm1  1  0.75000000  0.50000000  0.25000000  1
