# generated using pymatgen
data_3456_Au8Na4
_symmetry_space_group_name_H-M   'Pa -3'
_cell_length_a   6.72039865
_cell_length_b   6.72039865
_cell_length_c   6.72039865
_cell_angle_alpha   90.00000000
_cell_angle_beta   90.00000000
_cell_angle_gamma   90.00000000
_chemical_formula_structural   Au8Na4
_chemical_formula_sum   'Au8 Na4'
_cell_volume   303.51845839
loop_
 _symmetry_equiv_pos_site_id
 _symmetry_equiv_pos_as_xyz
  1  'x, y, z'
loop_
 _atom_type_symbol
  Au
  Na
loop_
 _atom_site_type_symbol
 _atom_site_label
 _atom_site_symmetry_multiplicity
 _atom_site_fract_x
 _atom_site_fract_y
 _atom_site_fract_z
 _atom_site_occupancy
  Au  Au0  1  0.61398141  0.61398141  0.38601859  1
  Au  Au1  1  0.38601859  0.38601859  0.61398141  1
  Au  Au2  1  0.11398141  0.88601859  0.61398141  1
  Au  Au3  1  0.88601859  0.11398141  0.38601859  1
  Au  Au4  1  0.38601859  0.11398141  0.11398141  1
  Au  Au5  1  0.61398141  0.88601859  0.88601859  1
  Au  Au6  1  0.88601859  0.38601859  0.88601859  1
  Au  Au7  1  0.11398141  0.61398141  0.11398141  1
  Na  Na0  1  0.00000000  0.00000000  0.00000000  1
  Na  Na1  1  0.50000000  0.50000000  0.00000000  1
  Na  Na2  1  0.50000000  0.00000000  0.50000000  1
  Na  Na3  1  0.00000000  0.50000000  0.50000000  1
