# generated using pymatgen
data_3459_Fe2Mo
_symmetry_space_group_name_H-M   'Fmmm'
_cell_length_a   6.44163341
_cell_length_b   6.18598523
_cell_length_c   2.34383211
_cell_angle_alpha   85.51946583
_cell_angle_beta   73.21167292
_cell_angle_gamma   21.26886125
_chemical_formula_structural   Fe2Mo
_chemical_formula_sum   'Fe2 Mo1'
_cell_volume   27.08643218
loop_
 _symmetry_equiv_pos_site_id
 _symmetry_equiv_pos_as_xyz
  1  'x, y, z'
loop_
 _atom_type_symbol
  Fe
  Mo
loop_
 _atom_site_type_symbol
 _atom_site_label
 _atom_site_symmetry_multiplicity
 _atom_site_fract_x
 _atom_site_fract_y
 _atom_site_fract_z
 _atom_site_occupancy
  Fe  Fe0  1  0.00716667  0.00716667  0.99283333  1
  Fe  Fe1  1  0.65950000  0.65950000  0.34050000  1
  Mo  Mo0  1  0.33333333  0.33333333  0.66666667  1
