# generated using pymatgen
data_3461_Au4K6
_symmetry_space_group_name_H-M   'Fdd2'
_cell_length_a   4.68867918
_cell_length_b   12.21273413
_cell_length_c   25.90814252
_cell_angle_alpha   90.00000000
_cell_angle_beta   90.00000000
_cell_angle_gamma   90.00000000
_chemical_formula_structural   Au4K6
_chemical_formula_sum   'Au16 K24'
_cell_volume   1483.54149284
loop_
 _symmetry_equiv_pos_site_id
 _symmetry_equiv_pos_as_xyz
  1  'x, y, z'
loop_
 _atom_type_symbol
  Au
  K
loop_
 _atom_site_type_symbol
 _atom_site_label
 _atom_site_symmetry_multiplicity
 _atom_site_fract_x
 _atom_site_fract_y
 _atom_site_fract_z
 _atom_site_occupancy
  Au  Au0  1  0.20101909  0.29027663  0.47020344  1
  Au  Au1  1  0.70101909  0.79027663  0.47020344  1
  Au  Au2  1  0.70101909  0.29027663  0.97020344  1
  Au  Au3  1  0.20101909  0.79027663  0.97020344  1
  Au  Au4  1  0.20101909  0.20972337  0.02979656  1
  Au  Au5  1  0.70101909  0.70972337  0.02979656  1
  Au  Au6  1  0.70101909  0.20972337  0.52979656  1
  Au  Au7  1  0.20101909  0.70972337  0.52979656  1
  Au  Au8  1  0.45101909  0.04027663  0.27979656  1
  Au  Au9  1  0.95101909  0.54027663  0.27979656  1
  Au  Au10  1  0.95101909  0.04027663  0.77979656  1
  Au  Au11  1  0.45101909  0.54027663  0.77979656  1
  Au  Au12  1  0.45101909  0.45972337  0.22020344  1
  Au  Au13  1  0.95101909  0.95972337  0.22020344  1
  Au  Au14  1  0.95101909  0.45972337  0.72020344  1
  Au  Au15  1  0.45101909  0.95972337  0.72020344  1
  K  K0  1  0.44120529  0.41861475  0.34874915  1
  K  K1  1  0.94120529  0.91861475  0.34874915  1
  K  K2  1  0.94120529  0.41861475  0.84874915  1
  K  K3  1  0.44120529  0.91861475  0.84874915  1
  K  K4  1  0.44120529  0.08138525  0.15125085  1
  K  K5  1  0.94120529  0.58138525  0.15125085  1
  K  K6  1  0.94120529  0.08138525  0.65125085  1
  K  K7  1  0.44120529  0.58138525  0.65125085  1
  K  K8  1  0.69120529  0.16861475  0.40125085  1
  K  K9  1  0.19120529  0.66861475  0.40125085  1
  K  K10  1  0.19120529  0.16861475  0.90125085  1
  K  K11  1  0.69120529  0.66861475  0.90125085  1
  K  K12  1  0.69120529  0.33138525  0.09874915  1
  K  K13  1  0.19120529  0.83138525  0.09874915  1
  K  K14  1  0.19120529  0.33138525  0.59874915  1
  K  K15  1  0.69120529  0.83138525  0.59874915  1
  K  K16  1  0.71555125  0.00000000  0.00000000  1
  K  K17  1  0.21555125  0.50000000  0.00000000  1
  K  K18  1  0.21555125  0.00000000  0.50000000  1
  K  K19  1  0.71555125  0.50000000  0.50000000  1
  K  K20  1  0.96555125  0.25000000  0.25000000  1
  K  K21  1  0.46555125  0.75000000  0.25000000  1
  K  K22  1  0.46555125  0.25000000  0.75000000  1
  K  K23  1  0.96555125  0.75000000  0.75000000  1
