# generated using pymatgen
data_3464_Mo2Nb
_symmetry_space_group_name_H-M   'I4/mmm'
_cell_length_a   5.33529036
_cell_length_b   5.33529036
_cell_length_c   4.53227751
_cell_angle_alpha   90.00000000
_cell_angle_beta   90.00000000
_cell_angle_gamma   129.65489502
_chemical_formula_structural   Mo2Nb
_chemical_formula_sum   'Mo4 Nb2'
_cell_volume   99.32719221
loop_
 _symmetry_equiv_pos_site_id
 _symmetry_equiv_pos_as_xyz
  1  'x, y, z'
loop_
 _atom_type_symbol
  Mo
  Nb
loop_
 _atom_site_type_symbol
 _atom_site_label
 _atom_site_symmetry_multiplicity
 _atom_site_fract_x
 _atom_site_fract_y
 _atom_site_fract_z
 _atom_site_occupancy
  Mo  Mo0  1  0.91977526  0.57963075  0.75000000  1
  Mo  Mo1  1  0.08022474  0.42036925  0.25000000  1
  Mo  Mo2  1  0.57963075  0.91977526  0.75000000  1
  Mo  Mo3  1  0.42036925  0.08022474  0.25000000  1
  Nb  Nb0  1  0.24968035  0.24968035  0.75000000  1
  Nb  Nb1  1  0.75031965  0.75031965  0.25000000  1
