# generated using pymatgen
data_3465_Pb3Sr
_symmetry_space_group_name_H-M   'Pm -3 m'
_cell_length_a   5.02485000
_cell_length_b   5.02485000
_cell_length_c   5.02485000
_cell_angle_alpha   90.00000000
_cell_angle_beta   90.00000000
_cell_angle_gamma   90.00000000
_chemical_formula_structural   Pb3Sr
_chemical_formula_sum   'Pb3 Sr1'
_cell_volume   126.87302818
loop_
 _symmetry_equiv_pos_site_id
 _symmetry_equiv_pos_as_xyz
  1  'x, y, z'
loop_
 _atom_type_symbol
  Pb
  Sr
loop_
 _atom_site_type_symbol
 _atom_site_label
 _atom_site_symmetry_multiplicity
 _atom_site_fract_x
 _atom_site_fract_y
 _atom_site_fract_z
 _atom_site_occupancy
  Pb  Pb0  1  0.49999904  0.49999904  0.00000000  1
  Pb  Pb1  1  0.49999904  0.00000000  0.49999904  1
  Pb  Pb2  1  0.00000000  0.49999904  0.49999904  1
  Sr  Sr0  1  0.00000000  0.00000000  0.00000000  1
