# generated using pymatgen
data_3469_Ag7Pt3
_symmetry_space_group_name_H-M   'Pmm2'
_cell_length_a   2.84532723
_cell_length_b   4.12650838
_cell_length_c   14.49912379
_cell_angle_alpha   90.00000000
_cell_angle_beta   90.00000000
_cell_angle_gamma   90.00000000
_chemical_formula_structural   Ag7Pt3
_chemical_formula_sum   'Ag7 Pt3'
_cell_volume   170.23807873
loop_
 _symmetry_equiv_pos_site_id
 _symmetry_equiv_pos_as_xyz
  1  'x, y, z'
loop_
 _atom_type_symbol
  Ag
  Pt
loop_
 _atom_site_type_symbol
 _atom_site_label
 _atom_site_symmetry_multiplicity
 _atom_site_fract_x
 _atom_site_fract_y
 _atom_site_fract_z
 _atom_site_occupancy
  Ag  Ag0  1  0.00000000  0.00000000  0.99523281  1
  Ag  Ag1  1  0.50000000  0.50000000  0.09481152  1
  Ag  Ag2  1  0.00000000  0.00000000  0.19920978  1
  Ag  Ag3  1  0.50000000  0.50000000  0.30037602  1
  Ag  Ag4  1  0.00000000  0.00000000  0.40456447  1
  Ag  Ag5  1  0.50000000  0.50000000  0.50514961  1
  Ag  Ag6  1  0.50000000  0.50000000  0.70073426  1
  Pt  Pt0  1  0.00000000  0.00000000  0.60479065  1
  Pt  Pt1  1  0.00000000  0.00000000  0.80139057  1
  Pt  Pt2  1  0.50000000  0.50000000  0.89374029  1
