# generated using pymatgen
data_3474_Ta2P2
_symmetry_space_group_name_H-M   'P4/nmm'
_cell_length_a   2.80109327
_cell_length_b   2.80109327
_cell_length_c   9.39351042
_cell_angle_alpha   90.00000000
_cell_angle_beta   90.00000000
_cell_angle_gamma   90.00000000
_chemical_formula_structural   Ta2P2
_chemical_formula_sum   'P2 Ta2'
_cell_volume   73.70264292
loop_
 _symmetry_equiv_pos_site_id
 _symmetry_equiv_pos_as_xyz
  1  'x, y, z'
loop_
 _atom_type_symbol
  P
  Ta
loop_
 _atom_site_type_symbol
 _atom_site_label
 _atom_site_symmetry_multiplicity
 _atom_site_fract_x
 _atom_site_fract_y
 _atom_site_fract_z
 _atom_site_occupancy
  P  P0  1  0.25000000  0.25000000  0.67380168  1
  P  P1  1  0.75000000  0.75000000  0.32619832  1
  Ta  Ta0  1  0.25000000  0.25000000  0.12524984  1
  Ta  Ta1  1  0.75000000  0.75000000  0.87475016  1
