# generated using pymatgen
data_3478_Ba2In2
_symmetry_space_group_name_H-M   'C2/m'
_cell_length_a   6.97610016
_cell_length_b   6.97610016
_cell_length_c   5.89460367
_cell_angle_alpha   65.82273173
_cell_angle_beta   65.82273173
_cell_angle_gamma   35.95515144
_chemical_formula_structural   Ba2In2
_chemical_formula_sum   'Ba2 In2'
_cell_volume   152.02047950
loop_
 _symmetry_equiv_pos_site_id
 _symmetry_equiv_pos_as_xyz
  1  'x, y, z'
loop_
 _atom_type_symbol
  Ba
  In
loop_
 _atom_site_type_symbol
 _atom_site_label
 _atom_site_symmetry_multiplicity
 _atom_site_fract_x
 _atom_site_fract_y
 _atom_site_fract_z
 _atom_site_occupancy
  Ba  Ba0  1  0.02638504  0.02638504  0.97029794  1
  Ba  Ba1  1  0.22361496  0.22361496  0.27970206  1
  In  In0  1  0.79002661  0.79002661  0.71898271  1
  In  In1  1  0.45997339  0.45997339  0.53101729  1
