# generated using pymatgen
data_347_SmTa
_symmetry_space_group_name_H-M   'P-6m2'
_cell_length_a   3.17517520
_cell_length_b   3.17516691
_cell_length_c   5.42566917
_cell_angle_alpha   90.00000000
_cell_angle_beta   90.00000000
_cell_angle_gamma   120.00009556
_chemical_formula_structural   SmTa
_chemical_formula_sum   'Sm1 Ta1'
_cell_volume   47.37156982
loop_
 _symmetry_equiv_pos_site_id
 _symmetry_equiv_pos_as_xyz
  1  'x, y, z'
loop_
 _atom_type_symbol
  Sm
  Ta
loop_
 _atom_site_type_symbol
 _atom_site_label
 _atom_site_symmetry_multiplicity
 _atom_site_fract_x
 _atom_site_fract_y
 _atom_site_fract_z
 _atom_site_occupancy
  Sm  Sm0  1  0.66666746  0.33333392  0.75000000  1
  Ta  Ta0  1  0.33333254  0.66666608  0.25000000  1
