# generated using pymatgen
data_3486_Pb4Sb2
_symmetry_space_group_name_H-M   'I4/mcm'
_cell_length_a   6.35288644
_cell_length_b   6.35288644
_cell_length_c   6.35288644
_cell_angle_alpha   105.64839438
_cell_angle_beta   105.64839438
_cell_angle_gamma   117.42153845
_chemical_formula_structural   Pb4Sb2
_chemical_formula_sum   'Pb4 Sb2'
_cell_volume   194.48765580
loop_
 _symmetry_equiv_pos_site_id
 _symmetry_equiv_pos_as_xyz
  1  'x, y, z'
loop_
 _atom_type_symbol
  Pb
  Sb
loop_
 _atom_site_type_symbol
 _atom_site_label
 _atom_site_symmetry_multiplicity
 _atom_site_fract_x
 _atom_site_fract_y
 _atom_site_fract_z
 _atom_site_occupancy
  Pb  Pb0  1  0.34735907  0.15264093  0.50000000  1
  Pb  Pb1  1  0.65264093  0.84735907  0.50000000  1
  Pb  Pb2  1  0.15264093  0.65264093  0.80528185  1
  Pb  Pb3  1  0.84735907  0.34735907  0.19471815  1
  Sb  Sb0  1  0.75000000  0.75000000  0.00000000  1
  Sb  Sb1  1  0.25000000  0.25000000  0.00000000  1
