# generated using pymatgen
data_3487_Cu4Mn
_symmetry_space_group_name_H-M   'I4/m'
_cell_length_a   3.61771216
_cell_length_b   4.48523618
_cell_length_c   4.48523618
_cell_angle_alpha   99.36038273
_cell_angle_beta   113.78408639
_cell_angle_gamma   66.21591361
_chemical_formula_structural   Cu4Mn
_chemical_formula_sum   'Cu4 Mn1'
_cell_volume   60.94174777
loop_
 _symmetry_equiv_pos_site_id
 _symmetry_equiv_pos_as_xyz
  1  'x, y, z'
loop_
 _atom_type_symbol
  Cu
  Mn
loop_
 _atom_site_type_symbol
 _atom_site_label
 _atom_site_symmetry_multiplicity
 _atom_site_fract_x
 _atom_site_fract_y
 _atom_site_fract_z
 _atom_site_occupancy
  Cu  Cu0  1  0.80026214  0.79962794  0.40015222  1
  Cu  Cu1  1  0.19973786  0.20037206  0.59984778  1
  Cu  Cu2  1  0.59989008  0.59984778  0.79962794  1
  Cu  Cu3  1  0.40010992  0.40015222  0.20037206  1
  Mn  Mn0  1  0.00000000  0.00000000  0.00000000  1
