# generated using pymatgen
data_3498_NpPa
_symmetry_space_group_name_H-M   'P4/mmm'
_cell_length_a   3.29824369
_cell_length_b   4.66442096
_cell_length_c   4.20077495
_cell_angle_alpha   90.00000000
_cell_angle_beta   90.00000000
_cell_angle_gamma   45.00000000
_chemical_formula_structural   NpPa
_chemical_formula_sum   'Np1 Pa1'
_cell_volume   45.69775830
loop_
 _symmetry_equiv_pos_site_id
 _symmetry_equiv_pos_as_xyz
  1  'x, y, z'
loop_
 _atom_type_symbol
  Np
  Pa
loop_
 _atom_site_type_symbol
 _atom_site_label
 _atom_site_symmetry_multiplicity
 _atom_site_fract_x
 _atom_site_fract_y
 _atom_site_fract_z
 _atom_site_occupancy
  Np  Np0  1  0.00000000  0.00000000  0.00000000  1
  Pa  Pa0  1  0.00000001  0.49999910  0.50000008  1
