# generated using pymatgen
data_3500_RhSr2
_symmetry_space_group_name_H-M   'I4/mmm'
_cell_length_a   7.73422846
_cell_length_b   7.73422846
_cell_length_c   7.73422846
_cell_angle_alpha   152.32197875
_cell_angle_beta   152.32197875
_cell_angle_gamma   39.54329207
_chemical_formula_structural   RhSr2
_chemical_formula_sum   'Rh1 Sr2'
_cell_volume   99.63815471
loop_
 _symmetry_equiv_pos_site_id
 _symmetry_equiv_pos_as_xyz
  1  'x, y, z'
loop_
 _atom_type_symbol
  Rh
  Sr
loop_
 _atom_site_type_symbol
 _atom_site_label
 _atom_site_symmetry_multiplicity
 _atom_site_fract_x
 _atom_site_fract_y
 _atom_site_fract_z
 _atom_site_occupancy
  Rh  Rh0  1  0.50000000  0.50000000  0.00000000  1
  Sr  Sr0  1  0.11958022  0.11958022  0.00000000  1
  Sr  Sr1  1  0.88041978  0.88041978  0.00000000  1
