# generated using pymatgen
data_3501_P2Br6
_symmetry_space_group_name_H-M   'Pm -3 n'
_cell_length_a   5.75511610
_cell_length_b   5.75511610
_cell_length_c   5.75511610
_cell_angle_alpha   90.00000000
_cell_angle_beta   90.00000000
_cell_angle_gamma   90.00000000
_chemical_formula_structural   P2Br6
_chemical_formula_sum   'Br6 P2'
_cell_volume   190.61727981
loop_
 _symmetry_equiv_pos_site_id
 _symmetry_equiv_pos_as_xyz
  1  'x, y, z'
loop_
 _atom_type_symbol
  Br
  P
loop_
 _atom_site_type_symbol
 _atom_site_label
 _atom_site_symmetry_multiplicity
 _atom_site_fract_x
 _atom_site_fract_y
 _atom_site_fract_z
 _atom_site_occupancy
  Br  Br0  1  0.75000000  0.50000000  0.00000000  1
  Br  Br1  1  0.25000000  0.50000000  0.00000000  1
  Br  Br2  1  0.00000000  0.75000000  0.50000000  1
  Br  Br3  1  0.00000000  0.25000000  0.50000000  1
  Br  Br4  1  0.50000000  0.00000000  0.25000000  1
  Br  Br5  1  0.50000000  0.00000000  0.75000000  1
  P  P0  1  0.00000000  0.00000000  0.00000000  1
  P  P1  1  0.50000000  0.50000000  0.50000000  1
