# generated using pymatgen
data_3505_Cu3Br
_symmetry_space_group_name_H-M   'I4/mmm'
_cell_length_a   4.98895260
_cell_length_b   4.98895260
_cell_length_c   4.98895260
_cell_angle_alpha   135.68239377
_cell_angle_beta   135.68239377
_cell_angle_gamma   64.47174344
_chemical_formula_structural   Cu3Br
_chemical_formula_sum   'Br1 Cu3'
_cell_volume   59.76845347
loop_
 _symmetry_equiv_pos_site_id
 _symmetry_equiv_pos_as_xyz
  1  'x, y, z'
loop_
 _atom_type_symbol
  Br
  Cu
loop_
 _atom_site_type_symbol
 _atom_site_label
 _atom_site_symmetry_multiplicity
 _atom_site_fract_x
 _atom_site_fract_y
 _atom_site_fract_z
 _atom_site_occupancy
  Br  Br0  1  0.00000000  0.00000000  0.00000000  1
  Cu  Cu0  1  0.25000000  0.75000000  0.50000000  1
  Cu  Cu1  1  0.50000000  0.50000000  0.00000000  1
  Cu  Cu2  1  0.75000000  0.25000000  0.50000000  1
