# generated using pymatgen
data_3506_Ag3Pt9
_symmetry_space_group_name_H-M   'Immm'
_cell_length_a   7.46879587
_cell_length_b   7.46879587
_cell_length_c   7.46879587
_cell_angle_alpha   148.88934029
_cell_angle_beta   114.06465128
_cell_angle_gamma   74.69613126
_chemical_formula_structural   Ag3Pt9
_chemical_formula_sum   'Ag3 Pt9'
_cell_volume   193.32997051
loop_
 _symmetry_equiv_pos_site_id
 _symmetry_equiv_pos_as_xyz
  1  'x, y, z'
loop_
 _atom_type_symbol
  Ag
  Pt
loop_
 _atom_site_type_symbol
 _atom_site_label
 _atom_site_symmetry_multiplicity
 _atom_site_fract_x
 _atom_site_fract_y
 _atom_site_fract_z
 _atom_site_occupancy
  Ag  Ag0  1  0.99348032  0.99348032  0.00000000  1
  Ag  Ag1  1  0.83333333  0.33333333  0.50000000  1
  Ag  Ag2  1  0.67318635  0.67318635  1.00000000  1
  Pt  Pt0  1  0.92371569  0.16606607  0.75764961  1
  Pt  Pt1  1  0.74295098  0.50060059  0.24235039  1
  Pt  Pt2  1  0.56884023  0.83333333  0.73550689  1
  Pt  Pt3  1  0.50475004  0.00475004  0.50000000  1
  Pt  Pt4  1  0.40841646  0.16606607  0.24235039  1
  Pt  Pt5  1  0.33333333  0.33333333  0.00000000  1
  Pt  Pt6  1  0.25825021  0.50060059  0.75764961  1
  Pt  Pt7  1  0.16191663  0.66191663  0.50000000  1
  Pt  Pt8  1  0.09782644  0.83333333  0.26449311  1
