# generated using pymatgen
data_350_FeAs3
_symmetry_space_group_name_H-M   'Pmm2'
_cell_length_a   3.43061852
_cell_length_b   3.17214935
_cell_length_c   6.50273774
_cell_angle_alpha   90.00000000
_cell_angle_beta   90.00000000
_cell_angle_gamma   90.00000000
_chemical_formula_structural   FeAs3
_chemical_formula_sum   'As3 Fe1'
_cell_volume   70.76561628
loop_
 _symmetry_equiv_pos_site_id
 _symmetry_equiv_pos_as_xyz
  1  'x, y, z'
loop_
 _atom_type_symbol
  As
  Fe
loop_
 _atom_site_type_symbol
 _atom_site_label
 _atom_site_symmetry_multiplicity
 _atom_site_fract_x
 _atom_site_fract_y
 _atom_site_fract_z
 _atom_site_occupancy
  As  As0  1  0.00000000  0.00000000  0.04090556  1
  As  As1  1  0.50000000  0.00000000  0.47392154  1
  As  As2  1  0.50000000  0.50000000  0.82117994  1
  Fe  Fe0  1  0.00000000  0.50000000  0.33065962  1
