# generated using pymatgen
data_3510_AgMn2
_symmetry_space_group_name_H-M   'I4/mmm'
_cell_length_a   6.22527182
_cell_length_b   6.22527182
_cell_length_c   6.22527182
_cell_angle_alpha   154.02873095
_cell_angle_beta   154.02873095
_cell_angle_gamma   37.05784600
_chemical_formula_structural   AgMn2
_chemical_formula_sum   'Ag1 Mn2'
_cell_volume   46.20089076
loop_
 _symmetry_equiv_pos_site_id
 _symmetry_equiv_pos_as_xyz
  1  'x, y, z'
loop_
 _atom_type_symbol
  Ag
  Mn
loop_
 _atom_site_type_symbol
 _atom_site_label
 _atom_site_symmetry_multiplicity
 _atom_site_fract_x
 _atom_site_fract_y
 _atom_site_fract_z
 _atom_site_occupancy
  Ag  Ag0  1  0.00000000  0.00000000  0.00000000  1
  Mn  Mn0  1  0.32472025  0.32472025  0.00000000  1
  Mn  Mn1  1  0.67527975  0.67527975  0.00000000  1
