# generated using pymatgen
data_3516_Ca2Sb2
_symmetry_space_group_name_H-M   'Pmma'
_cell_length_a   5.82884222
_cell_length_b   3.43414694
_cell_length_c   5.81233054
_cell_angle_alpha   89.99765914
_cell_angle_beta   90.00000000
_cell_angle_gamma   90.00000000
_chemical_formula_structural   Ca2Sb2
_chemical_formula_sum   'Ca2 Sb2'
_cell_volume   116.34600549
loop_
 _symmetry_equiv_pos_site_id
 _symmetry_equiv_pos_as_xyz
  1  'x, y, z'
loop_
 _atom_type_symbol
  Ca
  Sb
loop_
 _atom_site_type_symbol
 _atom_site_label
 _atom_site_symmetry_multiplicity
 _atom_site_fract_x
 _atom_site_fract_y
 _atom_site_fract_z
 _atom_site_occupancy
  Ca  Ca0  1  0.00000000  0.87907461  0.12881501  1
  Ca  Ca1  1  0.50000000  0.87092539  0.62118499  1
  Sb  Sb0  1  0.00000000  0.37533660  0.62884188  1
  Sb  Sb1  1  0.50000000  0.37466340  0.12115812  1
