# generated using pymatgen
data_3518_Mn23Sm6
_symmetry_space_group_name_H-M   'Fm -3 m'
_cell_length_a   8.66710462
_cell_length_b   8.66710462
_cell_length_c   8.66710462
_cell_angle_alpha   120.00000000
_cell_angle_beta   90.00000000
_cell_angle_gamma   120.00000000
_chemical_formula_structural   Mn23Sm6
_chemical_formula_sum   'Mn23 Sm6'
_cell_volume   460.37011010
loop_
 _symmetry_equiv_pos_site_id
 _symmetry_equiv_pos_as_xyz
  1  'x, y, z'
loop_
 _atom_type_symbol
  Mn
  Sm
loop_
 _atom_site_type_symbol
 _atom_site_label
 _atom_site_symmetry_multiplicity
 _atom_site_fract_x
 _atom_site_fract_y
 _atom_site_fract_z
 _atom_site_occupancy
  Mn  Mn0  1  0.00000000  0.00000000  0.00000000  1
  Mn  Mn1  1  0.49999983  0.00000000  0.00000000  1
  Mn  Mn2  1  0.00000000  0.49999983  0.00000000  1
  Mn  Mn3  1  0.49999983  0.49999983  0.00000000  1
  Mn  Mn4  1  0.67746305  0.35492644  0.03238983  1
  Mn  Mn5  1  0.36289008  0.24192672  0.12096336  1
  Mn  Mn6  1  0.87903793  0.24192672  0.12096336  1
  Mn  Mn7  1  0.87903793  0.75807457  0.12096336  1
  Mn  Mn8  1  0.67746305  0.35492644  0.32253661  1
  Mn  Mn9  1  0.67746305  0.64507322  0.32253661  1
  Mn  Mn10  1  0.96760983  0.64507322  0.32253661  1
  Mn  Mn11  1  0.12096336  0.24192672  0.36289008  1
  Mn  Mn12  1  0.00000000  0.00000000  0.49999983  1
  Mn  Mn13  1  0.00000000  0.49999983  0.49999983  1
  Mn  Mn14  1  0.49999983  0.49999983  0.49999983  1
  Mn  Mn15  1  0.87903793  0.75807457  0.63711121  1
  Mn  Mn16  1  0.03238983  0.35492644  0.67746305  1
  Mn  Mn17  1  0.32253661  0.35492644  0.67746305  1
  Mn  Mn18  1  0.32253661  0.64507322  0.67746305  1
  Mn  Mn19  1  0.12096336  0.24192672  0.87903793  1
  Mn  Mn20  1  0.12096336  0.75807457  0.87903793  1
  Mn  Mn21  1  0.63711121  0.75807457  0.87903793  1
  Mn  Mn22  1  0.32253661  0.64507322  0.96760983  1
  Sm  Sm0  1  0.29556249  0.00000000  0.29556249  1
  Sm  Sm1  1  0.29556249  0.59112498  0.29556249  1
  Sm  Sm2  1  0.70443717  1.00000000  0.29556249  1
  Sm  Sm3  1  0.29556249  1.00000000  0.70443717  1
  Sm  Sm4  1  0.70443717  0.40887468  0.70443717  1
  Sm  Sm5  1  0.70443798  0.00000000  0.70443798  1
