# generated using pymatgen
data_3519_Ga2Ni6
_symmetry_space_group_name_H-M   'I4/mmm'
_cell_length_a   3.61583613
_cell_length_b   3.61583613
_cell_length_c   7.47168440
_cell_angle_alpha   104.00279785
_cell_angle_beta   104.00279785
_cell_angle_gamma   90.00000000
_chemical_formula_structural   Ga2Ni6
_chemical_formula_sum   'Ga2 Ni6'
_cell_volume   91.78932696
loop_
 _symmetry_equiv_pos_site_id
 _symmetry_equiv_pos_as_xyz
  1  'x, y, z'
loop_
 _atom_type_symbol
  Ga
  Ni
loop_
 _atom_site_type_symbol
 _atom_site_label
 _atom_site_symmetry_multiplicity
 _atom_site_fract_x
 _atom_site_fract_y
 _atom_site_fract_z
 _atom_site_occupancy
  Ga  Ga0  1  0.37578835  0.37578835  0.75157671  1
  Ga  Ga1  1  0.62421165  0.62421165  0.24842329  1
  Ni  Ni0  1  0.00000000  0.50000000  0.00000000  1
  Ni  Ni1  1  0.50000000  0.00000000  0.00000000  1
  Ni  Ni2  1  0.25000000  0.75000000  0.50000000  1
  Ni  Ni3  1  0.75000000  0.25000000  0.50000000  1
  Ni  Ni4  1  0.12616180  0.12616180  0.25232360  1
  Ni  Ni5  1  0.87383820  0.87383820  0.74767640  1
