# generated using pymatgen
data_3524_AgAu5
_symmetry_space_group_name_H-M   'P4/mmm'
_cell_length_a   12.65284190
_cell_length_b   2.92566576
_cell_length_c   2.92566576
_cell_angle_alpha   90.00000000
_cell_angle_beta   90.00000000
_cell_angle_gamma   90.00000000
_chemical_formula_structural   AgAu5
_chemical_formula_sum   'Ag1 Au5'
_cell_volume   108.30225523
loop_
 _symmetry_equiv_pos_site_id
 _symmetry_equiv_pos_as_xyz
  1  'x, y, z'
loop_
 _atom_type_symbol
  Ag
  Au
loop_
 _atom_site_type_symbol
 _atom_site_label
 _atom_site_symmetry_multiplicity
 _atom_site_fract_x
 _atom_site_fract_y
 _atom_site_fract_z
 _atom_site_occupancy
  Ag  Ag0  1  0.83333333  0.50000000  0.50000000  1
  Au  Au0  1  0.99855076  0.00000000  0.00000000  1
  Au  Au1  1  0.16697267  0.50000000  0.50000000  1
  Au  Au2  1  0.33333333  0.00000000  0.00000000  1
  Au  Au3  1  0.49969400  0.50000000  0.50000000  1
  Au  Au4  1  0.66811590  0.00000000  0.00000000  1
