# generated using pymatgen
data_3525_Cu2Ge2
_symmetry_space_group_name_H-M   'Cmcm'
_cell_length_a   5.04959075
_cell_length_b   5.04959075
_cell_length_c   4.11452597
_cell_angle_alpha   90.00000000
_cell_angle_beta   90.00000000
_cell_angle_gamma   144.78622780
_chemical_formula_structural   Cu2Ge2
_chemical_formula_sum   'Cu2 Ge2'
_cell_volume   60.49624767
loop_
 _symmetry_equiv_pos_site_id
 _symmetry_equiv_pos_as_xyz
  1  'x, y, z'
loop_
 _atom_type_symbol
  Cu
  Ge
loop_
 _atom_site_type_symbol
 _atom_site_label
 _atom_site_symmetry_multiplicity
 _atom_site_fract_x
 _atom_site_fract_y
 _atom_site_fract_z
 _atom_site_occupancy
  Cu  Cu0  1  0.91928827  0.08071173  0.75000000  1
  Cu  Cu1  1  0.08071173  0.91928827  0.25000000  1
  Ge  Ge0  1  0.64827758  0.35172242  0.75000000  1
  Ge  Ge1  1  0.35172242  0.64827758  0.25000000  1
