# generated using pymatgen
data_3527_AgBa
_symmetry_space_group_name_H-M   'P4/mmm'
_cell_length_a   3.99132736
_cell_length_b   5.64459039
_cell_length_c   4.23325987
_cell_angle_alpha   90.00000000
_cell_angle_beta   90.00000000
_cell_angle_gamma   44.99999990
_chemical_formula_structural   AgBa
_chemical_formula_sum   'Ag1 Ba1'
_cell_volume   67.43878105
loop_
 _symmetry_equiv_pos_site_id
 _symmetry_equiv_pos_as_xyz
  1  'x, y, z'
loop_
 _atom_type_symbol
  Ag
  Ba
loop_
 _atom_site_type_symbol
 _atom_site_label
 _atom_site_symmetry_multiplicity
 _atom_site_fract_x
 _atom_site_fract_y
 _atom_site_fract_z
 _atom_site_occupancy
  Ag  Ag0  1  0.00000000  0.00000000  0.00000000  1
  Ba  Ba0  1  0.00000000  0.50000000  0.50000000  1
