# generated using pymatgen
data_352_AuP3
_symmetry_space_group_name_H-M   'Cmmm'
_cell_length_a   2.80033140
_cell_length_b   2.80033140
_cell_length_c   9.52191550
_cell_angle_alpha   90.00000000
_cell_angle_beta   90.00000000
_cell_angle_gamma   116.77723538
_chemical_formula_structural   AuP3
_chemical_formula_sum   'Au1 P3'
_cell_volume   66.66229863
loop_
 _symmetry_equiv_pos_site_id
 _symmetry_equiv_pos_as_xyz
  1  'x, y, z'
loop_
 _atom_type_symbol
  Au
  P
loop_
 _atom_site_type_symbol
 _atom_site_label
 _atom_site_symmetry_multiplicity
 _atom_site_fract_x
 _atom_site_fract_y
 _atom_site_fract_z
 _atom_site_occupancy
  Au  Au0  1  0.00000000  0.00000000  0.00000000  1
  P  P0  1  0.50000000  0.50000000  0.69851420  1
  P  P1  1  0.00000000  0.00000000  0.50000000  1
  P  P2  1  0.50000000  0.50000000  0.30148580  1
