# generated using pymatgen
data_3530_P3Br
_symmetry_space_group_name_H-M   'Pm -3 m'
_cell_length_a   4.95661373
_cell_length_b   4.95661373
_cell_length_c   4.95661373
_cell_angle_alpha   90.00000000
_cell_angle_beta   90.00000000
_cell_angle_gamma   90.00000000
_chemical_formula_structural   P3Br
_chemical_formula_sum   'Br1 P3'
_cell_volume   121.77418361
loop_
 _symmetry_equiv_pos_site_id
 _symmetry_equiv_pos_as_xyz
  1  'x, y, z'
loop_
 _atom_type_symbol
  Br
  P
loop_
 _atom_site_type_symbol
 _atom_site_label
 _atom_site_symmetry_multiplicity
 _atom_site_fract_x
 _atom_site_fract_y
 _atom_site_fract_z
 _atom_site_occupancy
  Br  Br0  1  0.00000000  0.00000000  0.00000000  1
  P  P0  1  0.50000000  0.00000000  0.00000000  1
  P  P1  1  0.00000000  0.50000000  0.00000000  1
  P  P2  1  0.00000000  0.00000000  0.50000000  1
