# generated using pymatgen
data_3533_Pd2Br
_symmetry_space_group_name_H-M   'Fmmm'
_cell_length_a   6.44364047
_cell_length_b   6.17020697
_cell_length_c   2.39966592
_cell_angle_alpha   85.52726988
_cell_angle_beta   72.67850404
_cell_angle_gamma   21.79422608
_chemical_formula_structural   Pd2Br
_chemical_formula_sum   'Br1 Pd2'
_cell_volume   28.01729277
loop_
 _symmetry_equiv_pos_site_id
 _symmetry_equiv_pos_as_xyz
  1  'x, y, z'
loop_
 _atom_type_symbol
  Br
  Pd
loop_
 _atom_site_type_symbol
 _atom_site_label
 _atom_site_symmetry_multiplicity
 _atom_site_fract_x
 _atom_site_fract_y
 _atom_site_fract_z
 _atom_site_occupancy
  Br  Br0  1  0.50000000  0.50000000  0.50000000  1
  Pd  Pd0  1  0.83471346  0.83471346  0.16528654  1
  Pd  Pd1  1  0.16528654  0.16528654  0.83471346  1
