# generated using pymatgen
data_3534_Mn2Ge6
_symmetry_space_group_name_H-M   'Cmcm'
_cell_length_a   6.58525069
_cell_length_b   6.58525069
_cell_length_c   4.36628450
_cell_angle_alpha   90.00000000
_cell_angle_beta   90.00000000
_cell_angle_gamma   133.08583748
_chemical_formula_structural   Mn2Ge6
_chemical_formula_sum   'Ge6 Mn2'
_cell_volume   138.28544733
loop_
 _symmetry_equiv_pos_site_id
 _symmetry_equiv_pos_as_xyz
  1  'x, y, z'
loop_
 _atom_type_symbol
  Ge
  Mn
loop_
 _atom_site_type_symbol
 _atom_site_label
 _atom_site_symmetry_multiplicity
 _atom_site_fract_x
 _atom_site_fract_y
 _atom_site_fract_z
 _atom_site_occupancy
  Ge  Ge0  1  0.93529755  0.06470245  0.75000000  1
  Ge  Ge1  1  0.06470245  0.93529755  0.25000000  1
  Ge  Ge2  1  0.94384441  0.56742510  0.75000000  1
  Ge  Ge3  1  0.05615559  0.43257490  0.25000000  1
  Ge  Ge4  1  0.43257490  0.05615559  0.75000000  1
  Ge  Ge5  1  0.56742510  0.94384441  0.25000000  1
  Mn  Mn0  1  0.48257302  0.51742698  0.25000000  1
  Mn  Mn1  1  0.51742698  0.48257302  0.75000000  1
