# generated using pymatgen
data_3535_Ir4Ta12
_symmetry_space_group_name_H-M   'Pnma'
_cell_length_a   5.26185700
_cell_length_b   9.63838733
_cell_length_c   5.54152563
_cell_angle_alpha   90.00000000
_cell_angle_beta   90.00000000
_cell_angle_gamma   90.00000000
_chemical_formula_structural   Ir4Ta12
_chemical_formula_sum   'Ir4 Ta12'
_cell_volume   281.04299333
loop_
 _symmetry_equiv_pos_site_id
 _symmetry_equiv_pos_as_xyz
  1  'x, y, z'
loop_
 _atom_type_symbol
  Ir
  Ta
loop_
 _atom_site_type_symbol
 _atom_site_label
 _atom_site_symmetry_multiplicity
 _atom_site_fract_x
 _atom_site_fract_y
 _atom_site_fract_z
 _atom_site_occupancy
  Ir  Ir0  1  0.06503033  0.75000000  0.62037123  1
  Ir  Ir1  1  0.43496967  0.25000000  0.12037123  1
  Ir  Ir2  1  0.56503033  0.75000000  0.87962877  1
  Ir  Ir3  1  0.93496967  0.25000000  0.37962877  1
  Ta  Ta0  1  0.00410276  0.25000000  0.87974149  1
  Ta  Ta1  1  0.22720083  0.02014915  0.36881545  1
  Ta  Ta2  1  0.22720083  0.47985085  0.36881545  1
  Ta  Ta3  1  0.27279917  0.52014915  0.86881545  1
  Ta  Ta4  1  0.27279917  0.97985085  0.86881545  1
  Ta  Ta5  1  0.49589724  0.75000000  0.37974149  1
  Ta  Ta6  1  0.50410276  0.25000000  0.62025851  1
  Ta  Ta7  1  0.72720083  0.02014915  0.13118455  1
  Ta  Ta8  1  0.72720083  0.47985085  0.13118455  1
  Ta  Ta9  1  0.77279917  0.52014915  0.63118455  1
  Ta  Ta10  1  0.77279917  0.97985085  0.63118455  1
  Ta  Ta11  1  0.99589724  0.75000000  0.12025851  1
