# generated using pymatgen
data_3537_V3Sb
_symmetry_space_group_name_H-M   'Immm'
_cell_length_a   5.00636285
_cell_length_b   5.00636285
_cell_length_c   4.32887091
_cell_angle_alpha   64.63548475
_cell_angle_beta   64.63548475
_cell_angle_gamma   38.55417818
_chemical_formula_structural   V3Sb
_chemical_formula_sum   'Sb1 V3'
_cell_volume   60.25704964
loop_
 _symmetry_equiv_pos_site_id
 _symmetry_equiv_pos_as_xyz
  1  'x, y, z'
loop_
 _atom_type_symbol
  Sb
  V
loop_
 _atom_site_type_symbol
 _atom_site_label
 _atom_site_symmetry_multiplicity
 _atom_site_fract_x
 _atom_site_fract_y
 _atom_site_fract_z
 _atom_site_occupancy
  Sb  Sb0  1  0.00000000  0.00000000  0.00000000  1
  V  V0  1  0.50000000  0.50000000  0.50000000  1
  V  V1  1  0.76528476  0.76528476  0.73600966  1
  V  V2  1  0.23471524  0.23471524  0.26399034  1
