# generated using pymatgen
data_3544_Ba2Sb
_symmetry_space_group_name_H-M   'Fmmm'
_cell_length_a   7.46795839
_cell_length_b   7.15123671
_cell_length_c   2.78312398
_cell_angle_alpha   85.51089371
_cell_angle_beta   72.67897152
_cell_angle_gamma   21.81013477
_chemical_formula_structural   Ba2Sb
_chemical_formula_sum   'Ba2 Sb1'
_cell_volume   43.72422572
loop_
 _symmetry_equiv_pos_site_id
 _symmetry_equiv_pos_as_xyz
  1  'x, y, z'
loop_
 _atom_type_symbol
  Ba
  Sb
loop_
 _atom_site_type_symbol
 _atom_site_label
 _atom_site_symmetry_multiplicity
 _atom_site_fract_x
 _atom_site_fract_y
 _atom_site_fract_z
 _atom_site_occupancy
  Ba  Ba0  1  0.83389083  0.83389083  0.16610917  1
  Ba  Ba1  1  0.16610917  0.16610917  0.83389083  1
  Sb  Sb0  1  0.50000000  0.50000000  0.50000000  1
