# generated using pymatgen
data_3549_NbAs3
_symmetry_space_group_name_H-M   'P4/mmm'
_cell_length_a   3.35236938
_cell_length_b   3.35236938
_cell_length_c   6.46326784
_cell_angle_alpha   90.00000000
_cell_angle_beta   90.00000000
_cell_angle_gamma   90.00000000
_chemical_formula_structural   NbAs3
_chemical_formula_sum   'As3 Nb1'
_cell_volume   72.63666300
loop_
 _symmetry_equiv_pos_site_id
 _symmetry_equiv_pos_as_xyz
  1  'x, y, z'
loop_
 _atom_type_symbol
  As
  Nb
loop_
 _atom_site_type_symbol
 _atom_site_label
 _atom_site_symmetry_multiplicity
 _atom_site_fract_x
 _atom_site_fract_y
 _atom_site_fract_z
 _atom_site_occupancy
  As  As0  1  0.00000000  0.00000000  0.96306132  1
  As  As1  1  0.50000000  0.50000000  0.25000000  1
  As  As2  1  0.00000000  0.00000000  0.53693868  1
  Nb  Nb0  1  0.50000000  0.50000000  0.75000000  1
