# generated using pymatgen
data_3552_W2As2
_symmetry_space_group_name_H-M   'P4/nmm'
_cell_length_a   3.27744309
_cell_length_b   3.28504007
_cell_length_c   5.94192895
_cell_angle_alpha   90.00000000
_cell_angle_beta   90.00000000
_cell_angle_gamma   90.00000000
_chemical_formula_structural   W2As2
_chemical_formula_sum   'As2 W2'
_cell_volume   63.97396746
loop_
 _symmetry_equiv_pos_site_id
 _symmetry_equiv_pos_as_xyz
  1  'x, y, z'
loop_
 _atom_type_symbol
  As
  W
loop_
 _atom_site_type_symbol
 _atom_site_label
 _atom_site_symmetry_multiplicity
 _atom_site_fract_x
 _atom_site_fract_y
 _atom_site_fract_z
 _atom_site_occupancy
  As  As0  1  0.00000000  0.00000000  0.02509032  1
  As  As1  1  0.50000000  0.50000000  0.72490968  1
  W  W0  1  0.00000000  0.00000000  0.53331466  1
  W  W1  1  0.50000000  0.50000000  0.21668534  1
