# generated using pymatgen
data_3554_Mo4Nb2
_symmetry_space_group_name_H-M   'I4_1/amd'
_cell_length_a   3.31284812
_cell_length_b   9.96057597
_cell_length_c   3.31284812
_cell_angle_alpha   80.42735263
_cell_angle_beta   90.00000000
_cell_angle_gamma   99.57264737
_chemical_formula_structural   Mo4Nb2
_chemical_formula_sum   'Mo4 Nb2'
_cell_volume   106.25078530
loop_
 _symmetry_equiv_pos_site_id
 _symmetry_equiv_pos_as_xyz
  1  'x, y, z'
loop_
 _atom_type_symbol
  Mo
  Nb
loop_
 _atom_site_type_symbol
 _atom_site_label
 _atom_site_symmetry_multiplicity
 _atom_site_fract_x
 _atom_site_fract_y
 _atom_site_fract_z
 _atom_site_occupancy
  Mo  Mo0  1  0.17309106  0.34618213  0.32690894  1
  Mo  Mo1  1  0.32690894  0.65381787  0.17309106  1
  Mo  Mo2  1  0.42309106  0.84618213  0.57690894  1
  Mo  Mo3  1  0.57690894  0.15381787  0.42309106  1
  Nb  Nb0  1  0.00000000  0.00000000  0.00000000  1
  Nb  Nb1  1  0.75000000  0.50000000  0.75000000  1
