# generated using pymatgen
data_3555_PBr4
_symmetry_space_group_name_H-M   'Im -3 m'
_cell_length_a   5.65406012
_cell_length_b   5.65406012
_cell_length_c   5.65406012
_cell_angle_alpha   109.47122063
_cell_angle_beta   109.47122063
_cell_angle_gamma   109.47122063
_chemical_formula_structural   PBr4
_chemical_formula_sum   'Br4 P1'
_cell_volume   139.14236299
loop_
 _symmetry_equiv_pos_site_id
 _symmetry_equiv_pos_as_xyz
  1  'x, y, z'
loop_
 _atom_type_symbol
  Br
  P
loop_
 _atom_site_type_symbol
 _atom_site_label
 _atom_site_symmetry_multiplicity
 _atom_site_fract_x
 _atom_site_fract_y
 _atom_site_fract_z
 _atom_site_occupancy
  Br  Br0  1  0.00000000  0.50000000  0.00000000  1
  Br  Br1  1  0.50000000  0.50000000  0.50000000  1
  Br  Br2  1  0.00000000  0.00000000  0.50000000  1
  Br  Br3  1  0.50000000  0.00000000  0.00000000  1
  P  P0  1  0.00000000  0.00000000  0.00000000  1
