# generated using pymatgen
data_3563_Pd2V
_symmetry_space_group_name_H-M   'Immm'
_cell_length_a   4.77971903
_cell_length_b   4.77971903
_cell_length_c   4.77971903
_cell_angle_alpha   146.59477146
_cell_angle_beta   133.20342816
_cell_angle_gamma   58.70876808
_chemical_formula_structural   Pd2V
_chemical_formula_sum   'Pd2 V1'
_cell_volume   43.45120986
loop_
 _symmetry_equiv_pos_site_id
 _symmetry_equiv_pos_as_xyz
  1  'x, y, z'
loop_
 _atom_type_symbol
  Pd
  V
loop_
 _atom_site_type_symbol
 _atom_site_label
 _atom_site_symmetry_multiplicity
 _atom_site_fract_x
 _atom_site_fract_y
 _atom_site_fract_z
 _atom_site_occupancy
  Pd  Pd0  1  0.99525227  0.99525227  1.00000000  1
  Pd  Pd1  1  0.67141440  0.67141440  0.00000000  1
  V  V0  1  0.33333333  0.33333333  1.00000000  1
