# generated using pymatgen
data_3564_Ga32Rh6
_symmetry_space_group_name_H-M   'Ccce'
_cell_length_a   15.74030594
_cell_length_b   15.74030594
_cell_length_c   6.51762813
_cell_angle_alpha   90.00000000
_cell_angle_beta   90.00000000
_cell_angle_gamma   156.06621748
_chemical_formula_structural   Ga32Rh6
_chemical_formula_sum   'Ga32 Rh6'
_cell_volume   655.08873301
loop_
 _symmetry_equiv_pos_site_id
 _symmetry_equiv_pos_as_xyz
  1  'x, y, z'
loop_
 _atom_type_symbol
  Ga
  Rh
loop_
 _atom_site_type_symbol
 _atom_site_label
 _atom_site_symmetry_multiplicity
 _atom_site_fract_x
 _atom_site_fract_y
 _atom_site_fract_z
 _atom_site_occupancy
  Ga  Ga0  1  0.57967315  0.42032685  0.00000000  1
  Ga  Ga1  1  0.42032685  0.57967315  0.00000000  1
  Ga  Ga2  1  0.92032685  0.07967315  0.50000000  1
  Ga  Ga3  1  0.07967315  0.92032685  0.50000000  1
  Ga  Ga4  1  0.74094896  0.25905104  0.00000000  1
  Ga  Ga5  1  0.25905104  0.74094896  0.00000000  1
  Ga  Ga6  1  0.75905104  0.24094896  0.50000000  1
  Ga  Ga7  1  0.24094896  0.75905104  0.50000000  1
  Ga  Ga8  1  0.38455535  0.31761793  0.35073894  1
  Ga  Ga9  1  0.61544465  0.68238207  0.35073894  1
  Ga  Ga10  1  0.31761793  0.38455535  0.64926106  1
  Ga  Ga11  1  0.68238207  0.61544465  0.64926106  1
  Ga  Ga12  1  0.11544465  0.18238207  0.14926106  1
  Ga  Ga13  1  0.88455535  0.81761793  0.14926106  1
  Ga  Ga14  1  0.18238207  0.11544465  0.85073894  1
  Ga  Ga15  1  0.81761793  0.88455535  0.85073894  1
  Ga  Ga16  1  0.52783260  0.14933626  0.66088846  1
  Ga  Ga17  1  0.47216740  0.85066374  0.66088846  1
  Ga  Ga18  1  0.14933626  0.52783260  0.33911154  1
  Ga  Ga19  1  0.85066374  0.47216740  0.33911154  1
  Ga  Ga20  1  0.97216740  0.35066374  0.83911154  1
  Ga  Ga21  1  0.02783260  0.64933626  0.83911154  1
  Ga  Ga22  1  0.35066374  0.97216740  0.16088846  1
  Ga  Ga23  1  0.64933626  0.02783260  0.16088846  1
  Ga  Ga24  1  0.26632420  0.02173829  0.85489616  1
  Ga  Ga25  1  0.73367580  0.97826171  0.85489616  1
  Ga  Ga26  1  0.02173829  0.26632420  0.14510384  1
  Ga  Ga27  1  0.97826171  0.73367580  0.14510384  1
  Ga  Ga28  1  0.23367580  0.47826171  0.64510384  1
  Ga  Ga29  1  0.76632420  0.52173829  0.64510384  1
  Ga  Ga30  1  0.47826171  0.23367580  0.35489616  1
  Ga  Ga31  1  0.52173829  0.76632420  0.35489616  1
  Rh  Rh0  1  0.50000000  0.50000000  0.00000000  1
  Rh  Rh1  1  0.00000000  0.00000000  0.50000000  1
  Rh  Rh2  1  0.66007757  0.33992243  0.00000000  1
  Rh  Rh3  1  0.33992243  0.66007757  0.00000000  1
  Rh  Rh4  1  0.83992243  0.16007757  0.50000000  1
  Rh  Rh5  1  0.16007757  0.83992243  0.50000000  1
