# generated using pymatgen
data_3566_Cu6Rh2
_symmetry_space_group_name_H-M   'Cmcm'
_cell_length_a   5.14361259
_cell_length_b   5.14361259
_cell_length_c   4.20967713
_cell_angle_alpha   90.00000000
_cell_angle_beta   90.00000000
_cell_angle_gamma   65.20706083
_chemical_formula_structural   Cu6Rh2
_chemical_formula_sum   'Cu6 Rh2'
_cell_volume   101.10890772
loop_
 _symmetry_equiv_pos_site_id
 _symmetry_equiv_pos_as_xyz
  1  'x, y, z'
loop_
 _atom_type_symbol
  Cu
  Rh
loop_
 _atom_site_type_symbol
 _atom_site_label
 _atom_site_symmetry_multiplicity
 _atom_site_fract_x
 _atom_site_fract_y
 _atom_site_fract_z
 _atom_site_occupancy
  Cu  Cu0  1  0.12973008  0.67067295  0.75000000  1
  Cu  Cu1  1  0.16231929  0.16231929  0.75000000  1
  Cu  Cu2  1  0.32932705  0.87026992  0.25000000  1
  Cu  Cu3  1  0.67067295  0.12973008  0.75000000  1
  Cu  Cu4  1  0.83768071  0.83768071  0.25000000  1
  Cu  Cu5  1  0.87026992  0.32932705  0.25000000  1
  Rh  Rh0  1  0.36209037  0.36209037  0.25000000  1
  Rh  Rh1  1  0.63790963  0.63790963  0.75000000  1
