# generated using pymatgen
data_3567_P4Br6
_symmetry_space_group_name_H-M   'Fdd2'
_cell_length_a   9.73256167
_cell_length_b   6.10637979
_cell_length_c   8.79062072
_cell_angle_alpha   79.35029958
_cell_angle_beta   38.06903708
_cell_angle_gamma   62.58066333
_chemical_formula_structural   P4Br6
_chemical_formula_sum   'Br6 P4'
_cell_volume   270.45313689
loop_
 _symmetry_equiv_pos_site_id
 _symmetry_equiv_pos_as_xyz
  1  'x, y, z'
loop_
 _atom_type_symbol
  Br
  P
loop_
 _atom_site_type_symbol
 _atom_site_label
 _atom_site_symmetry_multiplicity
 _atom_site_fract_x
 _atom_site_fract_y
 _atom_site_fract_z
 _atom_site_occupancy
  Br  Br0  1  0.76523730  0.64598259  0.36095103  1
  Br  Br1  1  0.22782909  0.36095103  0.64598259  1
  Br  Br2  1  0.60401741  0.48476270  0.02217091  1
  Br  Br3  1  0.88904897  0.02217091  0.48476270  1
  Br  Br4  1  0.08557478  0.91442522  0.91442522  1
  Br  Br5  1  0.33557478  0.16442522  0.16442522  1
  P  P0  1  0.46324954  0.79657572  0.28206544  1
  P  P1  1  0.45810930  0.28206544  0.79657572  1
  P  P2  1  0.45342428  0.78675046  0.79189070  1
  P  P3  1  0.96793456  0.79189070  0.78675046  1
