# generated using pymatgen
data_3569_Mn2Ta4
_symmetry_space_group_name_H-M   'Pnnm'
_cell_length_a   6.14990357
_cell_length_b   5.47820700
_cell_length_c   3.04632667
_cell_angle_alpha   90.00000000
_cell_angle_beta   90.00000000
_cell_angle_gamma   90.00000000
_chemical_formula_structural   Mn2Ta4
_chemical_formula_sum   'Mn2 Ta4'
_cell_volume   102.63210048
loop_
 _symmetry_equiv_pos_site_id
 _symmetry_equiv_pos_as_xyz
  1  'x, y, z'
loop_
 _atom_type_symbol
  Mn
  Ta
loop_
 _atom_site_type_symbol
 _atom_site_label
 _atom_site_symmetry_multiplicity
 _atom_site_fract_x
 _atom_site_fract_y
 _atom_site_fract_z
 _atom_site_occupancy
  Mn  Mn0  1  0.00000000  0.00000000  0.00000000  1
  Mn  Mn1  1  0.50000000  0.50000000  0.50000000  1
  Ta  Ta0  1  0.20802943  0.37157941  0.00000000  1
  Ta  Ta1  1  0.29197057  0.87157941  0.50000000  1
  Ta  Ta2  1  0.70802943  0.12842059  0.50000000  1
  Ta  Ta3  1  0.79197057  0.62842059  0.00000000  1
