# generated using pymatgen
data_3570_GaNb5
_symmetry_space_group_name_H-M   'Cmmm'
_cell_length_a   7.02340380
_cell_length_b   7.02340380
_cell_length_c   4.48839435
_cell_angle_alpha   90.00000000
_cell_angle_beta   90.00000000
_cell_angle_gamma   151.49319570
_chemical_formula_structural   GaNb5
_chemical_formula_sum   'Ga1 Nb5'
_cell_volume   105.66816425
loop_
 _symmetry_equiv_pos_site_id
 _symmetry_equiv_pos_as_xyz
  1  'x, y, z'
loop_
 _atom_type_symbol
  Ga
  Nb
loop_
 _atom_site_type_symbol
 _atom_site_label
 _atom_site_symmetry_multiplicity
 _atom_site_fract_x
 _atom_site_fract_y
 _atom_site_fract_z
 _atom_site_occupancy
  Ga  Ga0  1  0.97220934  0.02779066  0.00000000  1
  Nb  Nb0  1  0.80869429  0.19130571  0.50000000  1
  Nb  Nb1  1  0.63523366  0.36476634  0.00000000  1
  Nb  Nb2  1  0.47222289  0.52777711  0.50000000  1
  Nb  Nb3  1  0.30921914  0.69078086  0.00000000  1
  Nb  Nb4  1  0.13575401  0.86424599  0.50000000  1
