# generated using pymatgen
data_3575_K2Pt4
_symmetry_space_group_name_H-M   'I4/mcm'
_cell_length_a   5.74255835
_cell_length_b   5.74255835
_cell_length_c   5.74255835
_cell_angle_alpha   100.69291773
_cell_angle_beta   100.69291773
_cell_angle_gamma   128.96972728
_chemical_formula_structural   K2Pt4
_chemical_formula_sum   'K2 Pt4'
_cell_volume   132.87340574
loop_
 _symmetry_equiv_pos_site_id
 _symmetry_equiv_pos_as_xyz
  1  'x, y, z'
loop_
 _atom_type_symbol
  K
  Pt
loop_
 _atom_site_type_symbol
 _atom_site_label
 _atom_site_symmetry_multiplicity
 _atom_site_fract_x
 _atom_site_fract_y
 _atom_site_fract_z
 _atom_site_occupancy
  K  K0  1  0.25000000  0.25000000  0.00000000  1
  K  K1  1  0.75000000  0.75000000  0.00000000  1
  Pt  Pt0  1  0.12089821  0.37910179  0.50000000  1
  Pt  Pt1  1  0.37910179  0.87910179  0.25820357  1
  Pt  Pt2  1  0.62089821  0.12089821  0.74179643  1
  Pt  Pt3  1  0.87910179  0.62089821  0.50000000  1
