# generated using pymatgen
data_3578_Ba4In2
_symmetry_space_group_name_H-M   'C2/m'
_cell_length_a   10.22287327
_cell_length_b   10.22287327
_cell_length_c   7.16300858
_cell_angle_alpha   62.00633525
_cell_angle_beta   62.00633525
_cell_angle_gamma   28.08885172
_chemical_formula_structural   Ba4In2
_chemical_formula_sum   'Ba4 In2'
_cell_volume   308.46192531
loop_
 _symmetry_equiv_pos_site_id
 _symmetry_equiv_pos_as_xyz
  1  'x, y, z'
loop_
 _atom_type_symbol
  Ba
  In
loop_
 _atom_site_type_symbol
 _atom_site_label
 _atom_site_symmetry_multiplicity
 _atom_site_fract_x
 _atom_site_fract_y
 _atom_site_fract_z
 _atom_site_occupancy
  Ba  Ba0  1  0.05679350  0.05679350  0.93215534  1
  Ba  Ba1  1  0.31393028  0.31393028  0.30400889  1
  Ba  Ba2  1  0.63051417  0.63051417  0.30710222  1
  Ba  Ba3  1  0.88765095  0.88765095  0.67895577  1
  In  In0  1  0.70462894  0.70462894  0.70132736  1
  In  In1  1  0.23981550  0.23981550  0.90978375  1
