# generated using pymatgen
data_3580_In4Pb2
_symmetry_space_group_name_H-M   'I4_1/amd'
_cell_length_a   12.79229317
_cell_length_b   12.79229317
_cell_length_c   12.79229317
_cell_angle_alpha   163.41762885
_cell_angle_beta   163.41762885
_cell_angle_gamma   23.53434872
_chemical_formula_structural   In4Pb2
_chemical_formula_sum   'In4 Pb2'
_cell_volume   170.46507042
loop_
 _symmetry_equiv_pos_site_id
 _symmetry_equiv_pos_as_xyz
  1  'x, y, z'
loop_
 _atom_type_symbol
  In
  Pb
loop_
 _atom_site_type_symbol
 _atom_site_label
 _atom_site_symmetry_multiplicity
 _atom_site_fract_x
 _atom_site_fract_y
 _atom_site_fract_z
 _atom_site_occupancy
  In  In0  1  0.57722478  0.57722478  0.00000000  1
  In  In1  1  0.67277522  0.17277522  0.50000000  1
  In  In2  1  0.42277522  0.42277522  0.00000000  1
  In  In3  1  0.82722478  0.32722478  0.50000000  1
  Pb  Pb0  1  0.00000000  0.00000000  0.00000000  1
  Pb  Pb1  1  0.25000000  0.75000000  0.50000000  1
