# generated using pymatgen
data_3588_FeSb
_symmetry_space_group_name_H-M   'R -3 m'
_cell_length_a   4.28323884
_cell_length_b   4.28323884
_cell_length_c   4.28323853
_cell_angle_alpha   44.58440250
_cell_angle_beta   44.58440250
_cell_angle_gamma   44.58441083
_chemical_formula_structural   FeSb
_chemical_formula_sum   'Fe1 Sb1'
_cell_volume   35.21169970
loop_
 _symmetry_equiv_pos_site_id
 _symmetry_equiv_pos_as_xyz
  1  'x, y, z'
loop_
 _atom_type_symbol
  Fe
  Sb
loop_
 _atom_site_type_symbol
 _atom_site_label
 _atom_site_symmetry_multiplicity
 _atom_site_fract_x
 _atom_site_fract_y
 _atom_site_fract_z
 _atom_site_occupancy
  Fe  Fe0  1  0.00000000  0.00000000  0.00000000  1
  Sb  Sb0  1  0.50000000  0.50000000  0.50000000  1
