# generated using pymatgen
data_3590_Ag4Fe
_symmetry_space_group_name_H-M   'I4/m'
_cell_length_a   6.45355124
_cell_length_b   6.45355124
_cell_length_c   4.99247746
_cell_angle_alpha   49.73471785
_cell_angle_beta   49.73471785
_cell_angle_gamma   90.00000000
_chemical_formula_structural   Ag4Fe
_chemical_formula_sum   'Ag4 Fe1'
_cell_volume   84.33831177
loop_
 _symmetry_equiv_pos_site_id
 _symmetry_equiv_pos_as_xyz
  1  'x, y, z'
loop_
 _atom_type_symbol
  Ag
  Fe
loop_
 _atom_site_type_symbol
 _atom_site_label
 _atom_site_symmetry_multiplicity
 _atom_site_fract_x
 _atom_site_fract_y
 _atom_site_fract_z
 _atom_site_occupancy
  Ag  Ag0  1  0.79577982  0.60247907  0.00000000  1
  Ag  Ag1  1  0.20422018  0.39752093  0.00000000  1
  Ag  Ag2  1  0.60247907  0.20422018  0.00000000  1
  Ag  Ag3  1  0.39752093  0.79577982  0.00000000  1
  Fe  Fe0  1  0.00000000  0.00000000  0.00000000  1
