# generated using pymatgen
data_3593_K2Sb2
_symmetry_space_group_name_H-M   'Imma'
_cell_length_a   7.14001619
_cell_length_b   7.14001619
_cell_length_c   7.14001619
_cell_angle_alpha   145.21969043
_cell_angle_beta   131.82430663
_cell_angle_gamma   60.77805537
_chemical_formula_structural   K2Sb2
_chemical_formula_sum   'K2 Sb2'
_cell_volume   153.20409254
loop_
 _symmetry_equiv_pos_site_id
 _symmetry_equiv_pos_as_xyz
  1  'x, y, z'
loop_
 _atom_type_symbol
  K
  Sb
loop_
 _atom_site_type_symbol
 _atom_site_label
 _atom_site_symmetry_multiplicity
 _atom_site_fract_x
 _atom_site_fract_y
 _atom_site_fract_z
 _atom_site_occupancy
  K  K0  1  0.01172629  0.01172629  0.00000000  1
  K  K1  1  0.73827371  0.23827371  0.50000000  1
  Sb  Sb0  1  0.45579810  0.45579810  0.00000000  1
  Sb  Sb1  1  0.29420190  0.79420190  0.50000000  1
