# generated using pymatgen
data_3594_Ni2V
_symmetry_space_group_name_H-M   'Immm'
_cell_length_a   3.13276969
_cell_length_b   7.65525219
_cell_length_c   2.91253231
_cell_angle_alpha   90.00000000
_cell_angle_beta   90.00000000
_cell_angle_gamma   90.00000000
_chemical_formula_structural   Ni2V
_chemical_formula_sum   'Ni4 V2'
_cell_volume   69.84876353
loop_
 _symmetry_equiv_pos_site_id
 _symmetry_equiv_pos_as_xyz
  1  'x, y, z'
loop_
 _atom_type_symbol
  Ni
  V
loop_
 _atom_site_type_symbol
 _atom_site_label
 _atom_site_symmetry_multiplicity
 _atom_site_fract_x
 _atom_site_fract_y
 _atom_site_fract_z
 _atom_site_occupancy
  Ni  Ni0  1  0.99637325  0.33599992  0.00000000  1
  Ni  Ni1  1  0.50362675  0.83599992  0.50000000  1
  Ni  Ni2  1  0.49637325  0.16400008  0.50000000  1
  Ni  Ni3  1  0.00362675  0.66400008  0.00000000  1
  V  V0  1  0.00000000  0.00000000  0.00000000  1
  V  V1  1  0.50000000  0.50000000  0.50000000  1
