# generated using pymatgen
data_3596_Na2P
_symmetry_space_group_name_H-M   'I4/mmm'
_cell_length_a   5.19054559
_cell_length_b   5.19054559
_cell_length_c   5.19054559
_cell_angle_alpha   136.34237233
_cell_angle_beta   136.34237233
_cell_angle_gamma   63.45146409
_chemical_formula_structural   Na2P
_chemical_formula_sum   'Na2 P1'
_cell_volume   65.78267518
loop_
 _symmetry_equiv_pos_site_id
 _symmetry_equiv_pos_as_xyz
  1  'x, y, z'
loop_
 _atom_type_symbol
  Na
  P
loop_
 _atom_site_type_symbol
 _atom_site_label
 _atom_site_symmetry_multiplicity
 _atom_site_fract_x
 _atom_site_fract_y
 _atom_site_fract_z
 _atom_site_occupancy
  Na  Na0  1  0.66228849  0.66228849  0.00000000  1
  Na  Na1  1  0.33771151  0.33771151  0.00000000  1
  P  P0  1  0.00000000  0.00000000  0.00000000  1
