# generated using pymatgen
data_3599_CuFe2
_symmetry_space_group_name_H-M   'Immm'
_cell_length_a   4.51806172
_cell_length_b   4.51806172
_cell_length_c   4.51806172
_cell_angle_alpha   147.58192920
_cell_angle_beta   133.23021487
_cell_angle_gamma   58.05598814
_chemical_formula_structural   CuFe2
_chemical_formula_sum   'Cu1 Fe2'
_cell_volume   35.73811203
loop_
 _symmetry_equiv_pos_site_id
 _symmetry_equiv_pos_as_xyz
  1  'x, y, z'
loop_
 _atom_type_symbol
  Cu
  Fe
loop_
 _atom_site_type_symbol
 _atom_site_label
 _atom_site_symmetry_multiplicity
 _atom_site_fract_x
 _atom_site_fract_y
 _atom_site_fract_z
 _atom_site_occupancy
  Cu  Cu0  1  0.00000000  0.00000000  0.00000000  1
  Fe  Fe0  1  0.33032820  0.33032820  1.00000000  1
  Fe  Fe1  1  0.66967180  0.66967180  0.00000000  1
