# generated using pymatgen
data_35_Ag4Sn8
_symmetry_space_group_name_H-M   'I4_1/amd'
_cell_length_a   14.70062519
_cell_length_b   14.70062519
_cell_length_c   14.70062519
_cell_angle_alpha   162.32840697
_cell_angle_beta   162.32840697
_cell_angle_gamma   25.09251544
_chemical_formula_structural   Ag4Sn8
_chemical_formula_sum   'Ag4 Sn8'
_cell_volume   292.66559608
loop_
 _symmetry_equiv_pos_site_id
 _symmetry_equiv_pos_as_xyz
  1  'x, y, z'
loop_
 _atom_type_symbol
  Ag
  Sn
loop_
 _atom_site_type_symbol
 _atom_site_label
 _atom_site_symmetry_multiplicity
 _atom_site_fract_x
 _atom_site_fract_y
 _atom_site_fract_z
 _atom_site_occupancy
  Ag  Ag0  1  0.08941416  0.08941416  0.00000000  1
  Ag  Ag1  1  0.91058584  0.91058584  0.00000000  1
  Ag  Ag2  1  0.83941416  0.33941416  0.50000001  1
  Ag  Ag3  1  0.66058584  0.16058584  0.49999999  1
  Sn  Sn0  1  0.25407980  0.25407980  0.00000000  1
  Sn  Sn1  1  0.74592020  0.74592020  0.00000000  1
  Sn  Sn2  1  0.00407980  0.50407980  0.50000000  1
  Sn  Sn3  1  0.49592020  0.99592020  0.50000000  1
  Sn  Sn4  1  0.41445704  0.41445704  0.00000000  1
  Sn  Sn5  1  0.58554296  0.58554296  0.00000000  1
  Sn  Sn6  1  0.16445704  0.66445704  0.50000001  1
  Sn  Sn7  1  0.33554296  0.83554296  0.49999999  1
