# generated using pymatgen
data_3600_Ag4Sn2
_symmetry_space_group_name_H-M   'I4_1/amd'
_cell_length_a   9.80882854
_cell_length_b   9.80882854
_cell_length_c   9.80882854
_cell_angle_alpha   157.72657002
_cell_angle_beta   157.72657002
_cell_angle_gamma   31.70435443
_chemical_formula_structural   Ag4Sn2
_chemical_formula_sum   'Ag4 Sn2'
_cell_volume   135.47698543
loop_
 _symmetry_equiv_pos_site_id
 _symmetry_equiv_pos_as_xyz
  1  'x, y, z'
loop_
 _atom_type_symbol
  Ag
  Sn
loop_
 _atom_site_type_symbol
 _atom_site_label
 _atom_site_symmetry_multiplicity
 _atom_site_fract_x
 _atom_site_fract_y
 _atom_site_fract_z
 _atom_site_occupancy
  Ag  Ag0  1  0.57331129  0.57331129  0.00000000  1
  Ag  Ag1  1  0.67668871  0.17668871  0.50000000  1
  Ag  Ag2  1  0.42668871  0.42668871  0.00000000  1
  Ag  Ag3  1  0.82331129  0.32331129  0.50000000  1
  Sn  Sn0  1  0.00000000  0.00000000  0.00000000  1
  Sn  Sn1  1  0.25000000  0.75000000  0.50000000  1
