# generated using pymatgen
data_3603_Mo2Nb
_symmetry_space_group_name_H-M   'I4/mmm'
_cell_length_a   5.34531087
_cell_length_b   5.34531087
_cell_length_c   6.41907923
_cell_angle_alpha   72.40550874
_cell_angle_beta   72.40550874
_cell_angle_gamma   34.91535725
_chemical_formula_structural   Mo2Nb
_chemical_formula_sum   'Mo4 Nb2'
_cell_volume   99.56685812
loop_
 _symmetry_equiv_pos_site_id
 _symmetry_equiv_pos_as_xyz
  1  'x, y, z'
loop_
 _atom_type_symbol
  Mo
  Nb
loop_
 _atom_site_type_symbol
 _atom_site_label
 _atom_site_symmetry_multiplicity
 _atom_site_fract_x
 _atom_site_fract_y
 _atom_site_fract_z
 _atom_site_occupancy
  Mo  Mo0  1  0.83001031  0.83001031  0.08517864  1
  Mo  Mo1  1  0.16998969  0.16998969  0.91482136  1
  Mo  Mo2  1  0.82991779  0.82991779  0.58496880  1
  Mo  Mo3  1  0.17008221  0.17008221  0.41503120  1
  Nb  Nb0  1  0.49970205  0.49970205  0.75017289  1
  Nb  Nb1  1  0.50029795  0.50029795  0.24982711  1
