# generated using pymatgen
data_3605_Ir4Nb2
_symmetry_space_group_name_H-M   'Pnnm'
_cell_length_a   3.17478547
_cell_length_b   7.75308865
_cell_length_c   4.54626316
_cell_angle_alpha   90.00000000
_cell_angle_beta   90.00000000
_cell_angle_gamma   90.00000000
_chemical_formula_structural   Ir4Nb2
_chemical_formula_sum   'Ir4 Nb2'
_cell_volume   111.90350898
loop_
 _symmetry_equiv_pos_site_id
 _symmetry_equiv_pos_as_xyz
  1  'x, y, z'
loop_
 _atom_type_symbol
  Ir
  Nb
loop_
 _atom_site_type_symbol
 _atom_site_label
 _atom_site_symmetry_multiplicity
 _atom_site_fract_x
 _atom_site_fract_y
 _atom_site_fract_z
 _atom_site_occupancy
  Ir  Ir0  1  0.19937744  0.34761945  0.00000000  1
  Ir  Ir1  1  0.80062256  0.65238055  0.00000000  1
  Ir  Ir2  1  0.69937744  0.15238055  0.50000000  1
  Ir  Ir3  1  0.30062256  0.84761945  0.50000000  1
  Nb  Nb0  1  0.00000000  0.00000000  0.00000000  1
  Nb  Nb1  1  0.50000000  0.50000000  0.50000000  1
