# generated using pymatgen
data_3610_Ga2Rh2
_symmetry_space_group_name_H-M   'Pmmn'
_cell_length_a   2.98260078
_cell_length_b   4.68724741
_cell_length_c   4.20550255
_cell_angle_alpha   90.00000000
_cell_angle_beta   90.00000000
_cell_angle_gamma   90.00000000
_chemical_formula_structural   Ga2Rh2
_chemical_formula_sum   'Ga2 Rh2'
_cell_volume   58.79371536
loop_
 _symmetry_equiv_pos_site_id
 _symmetry_equiv_pos_as_xyz
  1  'x, y, z'
loop_
 _atom_type_symbol
  Ga
  Rh
loop_
 _atom_site_type_symbol
 _atom_site_label
 _atom_site_symmetry_multiplicity
 _atom_site_fract_x
 _atom_site_fract_y
 _atom_site_fract_z
 _atom_site_occupancy
  Ga  Ga0  1  0.00000000  0.00000000  0.02360357  1
  Ga  Ga1  1  0.50000000  0.50000000  0.80972976  1
  Rh  Rh0  1  0.50000000  0.00000000  0.52226260  1
  Rh  Rh1  1  0.00000000  0.50000000  0.31107074  1
