# generated using pymatgen
data_3612_PtTh
_symmetry_space_group_name_H-M   'P-6m2'
_cell_length_a   3.72455284
_cell_length_b   3.72450462
_cell_length_c   4.08293040
_cell_angle_alpha   90.00000000
_cell_angle_beta   90.00000000
_cell_angle_gamma   120.00041515
_chemical_formula_structural   PtTh
_chemical_formula_sum   'Pt1 Th1'
_cell_volume   49.05050116
loop_
 _symmetry_equiv_pos_site_id
 _symmetry_equiv_pos_as_xyz
  1  'x, y, z'
loop_
 _atom_type_symbol
  Pt
  Th
loop_
 _atom_site_type_symbol
 _atom_site_label
 _atom_site_symmetry_multiplicity
 _atom_site_fract_x
 _atom_site_fract_y
 _atom_site_fract_z
 _atom_site_occupancy
  Pt  Pt0  1  0.66666804  0.33333508  0.75000000  1
  Th  Th0  1  0.33333196  0.66666492  0.25000000  1
