# generated using pymatgen
data_3614_Pb2V2
_symmetry_space_group_name_H-M   'P4/nmm'
_cell_length_a   3.23840556
_cell_length_b   3.23840556
_cell_length_c   8.42884970
_cell_angle_alpha   90.00000000
_cell_angle_beta   90.00000000
_cell_angle_gamma   90.00000000
_chemical_formula_structural   Pb2V2
_chemical_formula_sum   'Pb2 V2'
_cell_volume   88.39562741
loop_
 _symmetry_equiv_pos_site_id
 _symmetry_equiv_pos_as_xyz
  1  'x, y, z'
loop_
 _atom_type_symbol
  Pb
  V
loop_
 _atom_site_type_symbol
 _atom_site_label
 _atom_site_symmetry_multiplicity
 _atom_site_fract_x
 _atom_site_fract_y
 _atom_site_fract_z
 _atom_site_occupancy
  Pb  Pb0  1  0.25000000  0.25000000  0.19759266  1
  Pb  Pb1  1  0.75000000  0.75000000  0.80240734  1
  V  V0  1  0.25000000  0.25000000  0.56156730  1
  V  V1  1  0.75000000  0.75000000  0.43843270  1
