# generated using pymatgen
data_3617_BaGe2
_symmetry_space_group_name_H-M   'I4/mmm'
_cell_length_a   6.41339910
_cell_length_b   6.41339910
_cell_length_c   6.41339910
_cell_angle_alpha   146.50240177
_cell_angle_beta   146.73864379
_cell_angle_gamma   47.92626462
_chemical_formula_structural   BaGe2
_chemical_formula_sum   'Ba1 Ge2'
_cell_volume   79.52601043
loop_
 _symmetry_equiv_pos_site_id
 _symmetry_equiv_pos_as_xyz
  1  'x, y, z'
loop_
 _atom_type_symbol
  Ba
  Ge
loop_
 _atom_site_type_symbol
 _atom_site_label
 _atom_site_symmetry_multiplicity
 _atom_site_fract_x
 _atom_site_fract_y
 _atom_site_fract_z
 _atom_site_occupancy
  Ba  Ba0  1  0.00000000  0.00000000  0.00000000  1
  Ge  Ge0  1  0.29328014  0.29328014  1.00000000  1
  Ge  Ge1  1  0.70671986  0.70671986  1.00000000  1
