# generated using pymatgen
data_3621_KSb
_symmetry_space_group_name_H-M   'R -3 m'
_cell_length_a   6.16032757
_cell_length_b   6.16032757
_cell_length_c   6.16032729
_cell_angle_alpha   34.25088694
_cell_angle_beta   34.25088694
_cell_angle_gamma   34.25089179
_chemical_formula_structural   KSb
_chemical_formula_sum   'K1 Sb1'
_cell_volume   66.03739166
loop_
 _symmetry_equiv_pos_site_id
 _symmetry_equiv_pos_as_xyz
  1  'x, y, z'
loop_
 _atom_type_symbol
  K
  Sb
loop_
 _atom_site_type_symbol
 _atom_site_label
 _atom_site_symmetry_multiplicity
 _atom_site_fract_x
 _atom_site_fract_y
 _atom_site_fract_z
 _atom_site_occupancy
  K  K0  1  0.00000000  0.00000000  0.00000000  1
  Sb  Sb0  1  0.49999993  0.49999993  0.50000011  1
