# generated using pymatgen
data_3622_Al6Pt4
_symmetry_space_group_name_H-M   'Fdd2'
_cell_length_a   8.20060367
_cell_length_b   7.05820797
_cell_length_c   5.36030248
_cell_angle_alpha   81.41059659
_cell_angle_beta   58.32498627
_cell_angle_gamma   40.26441714
_chemical_formula_structural   Al6Pt4
_chemical_formula_sum   'Al6 Pt4'
_cell_volume   151.79909229
loop_
 _symmetry_equiv_pos_site_id
 _symmetry_equiv_pos_as_xyz
  1  'x, y, z'
loop_
 _atom_type_symbol
  Al
  Pt
loop_
 _atom_site_type_symbol
 _atom_site_label
 _atom_site_symmetry_multiplicity
 _atom_site_fract_x
 _atom_site_fract_y
 _atom_site_fract_z
 _atom_site_occupancy
  Al  Al0  1  0.74828864  0.46044634  0.34470906  1
  Al  Al1  1  0.44655595  0.34470906  0.46044634  1
  Al  Al2  1  0.78955366  0.50171136  0.80344405  1
  Al  Al3  1  0.90529094  0.80344405  0.50171136  1
  Al  Al4  1  0.08285070  0.91714930  0.91714930  1
  Al  Al5  1  0.33285070  0.16714930  0.16714930  1
  Pt  Pt0  1  0.21029981  0.90898189  0.36871341  1
  Pt  Pt1  1  0.51200489  0.36871341  0.90898189  1
  Pt  Pt2  1  0.34101811  0.03970019  0.73799511  1
  Pt  Pt3  1  0.88128659  0.73799511  0.03970019  1
