# generated using pymatgen
data_3627_Cu16Mn8
_symmetry_space_group_name_H-M   'Fd -3 m'
_cell_length_a   7.75402328
_cell_length_b   7.75402328
_cell_length_c   7.75402328
_cell_angle_alpha   60.00000000
_cell_angle_beta   60.00000000
_cell_angle_gamma   60.00000000
_chemical_formula_structural   Cu16Mn8
_chemical_formula_sum   'Cu16 Mn8'
_cell_volume   329.66003712
loop_
 _symmetry_equiv_pos_site_id
 _symmetry_equiv_pos_as_xyz
  1  'x, y, z'
loop_
 _atom_type_symbol
  Cu
  Mn
loop_
 _atom_site_type_symbol
 _atom_site_label
 _atom_site_symmetry_multiplicity
 _atom_site_fract_x
 _atom_site_fract_y
 _atom_site_fract_z
 _atom_site_occupancy
  Cu  Cu0  1  0.50000000  0.00000000  0.50000000  1
  Cu  Cu1  1  0.50000000  0.00000000  0.00000000  1
  Cu  Cu2  1  0.00000000  0.00000000  0.50000000  1
  Cu  Cu3  1  0.50000000  0.50000000  0.50000000  1
  Cu  Cu4  1  0.32111156  0.82111156  0.92888844  1
  Cu  Cu5  1  0.92888844  0.82111156  0.32111156  1
  Cu  Cu6  1  0.92888844  0.82111156  0.92888844  1
  Cu  Cu7  1  0.32111156  0.42888844  0.32111156  1
  Cu  Cu8  1  0.32111156  0.42888844  0.92888844  1
  Cu  Cu9  1  0.92888844  0.42888844  0.32111156  1
  Cu  Cu10  1  0.67888844  0.17888844  0.07111156  1
  Cu  Cu11  1  0.07111156  0.17888844  0.67888844  1
  Cu  Cu12  1  0.07111156  0.17888844  0.07111156  1
  Cu  Cu13  1  0.67888844  0.57111156  0.67888844  1
  Cu  Cu14  1  0.67888844  0.57111156  0.07111156  1
  Cu  Cu15  1  0.07111156  0.57111156  0.67888844  1
  Mn  Mn0  1  0.71360681  0.85917956  0.71360681  1
  Mn  Mn1  1  0.35917956  0.21360681  0.71360681  1
  Mn  Mn2  1  0.71360681  0.21360681  0.35917956  1
  Mn  Mn3  1  0.71360681  0.21360681  0.71360681  1
  Mn  Mn4  1  0.28639319  0.14082044  0.28639319  1
  Mn  Mn5  1  0.64082044  0.78639319  0.28639319  1
  Mn  Mn6  1  0.28639319  0.78639319  0.64082044  1
  Mn  Mn7  1  0.28639319  0.78639319  0.28639319  1
