# generated using pymatgen
data_3630_Cu5V
_symmetry_space_group_name_H-M   'F-43m'
_cell_length_a   4.77326103
_cell_length_b   4.77326103
_cell_length_c   4.77326103
_cell_angle_alpha   60.00000000
_cell_angle_beta   60.00000000
_cell_angle_gamma   60.00000000
_chemical_formula_structural   Cu5V
_chemical_formula_sum   'Cu5 V1'
_cell_volume   76.90074647
loop_
 _symmetry_equiv_pos_site_id
 _symmetry_equiv_pos_as_xyz
  1  'x, y, z'
loop_
 _atom_type_symbol
  Cu
  V
loop_
 _atom_site_type_symbol
 _atom_site_label
 _atom_site_symmetry_multiplicity
 _atom_site_fract_x
 _atom_site_fract_y
 _atom_site_fract_z
 _atom_site_occupancy
  Cu  Cu0  1  0.75000000  0.75000000  0.75000000  1
  Cu  Cu1  1  0.37516693  0.87449920  0.37516693  1
  Cu  Cu2  1  0.87449920  0.37516693  0.37516693  1
  Cu  Cu3  1  0.37516693  0.37516693  0.37516693  1
  Cu  Cu4  1  0.37516693  0.37516693  0.87449920  1
  V  V0  1  0.00000000  0.00000000  0.00000000  1
