# generated using pymatgen
data_3633_Ta4Sb8
_symmetry_space_group_name_H-M   'Pnma'
_cell_length_a   5.08013532
_cell_length_b   5.80137909
_cell_length_c   8.96055592
_cell_angle_alpha   90.00000000
_cell_angle_beta   90.00000000
_cell_angle_gamma   90.00000000
_chemical_formula_structural   Ta4Sb8
_chemical_formula_sum   'Sb8 Ta4'
_cell_volume   264.08362970
loop_
 _symmetry_equiv_pos_site_id
 _symmetry_equiv_pos_as_xyz
  1  'x, y, z'
loop_
 _atom_type_symbol
  Sb
  Ta
loop_
 _atom_site_type_symbol
 _atom_site_label
 _atom_site_symmetry_multiplicity
 _atom_site_fract_x
 _atom_site_fract_y
 _atom_site_fract_z
 _atom_site_occupancy
  Sb  Sb0  1  0.25000000  0.11860924  0.79945405  1
  Sb  Sb1  1  0.75000000  0.38139076  0.29945405  1
  Sb  Sb2  1  0.25000000  0.61860924  0.70054595  1
  Sb  Sb3  1  0.75000000  0.88139076  0.20054595  1
  Sb  Sb4  1  0.25000000  0.16284342  0.45618253  1
  Sb  Sb5  1  0.75000000  0.33715658  0.95618253  1
  Sb  Sb6  1  0.25000000  0.66284342  0.04381747  1
  Sb  Sb7  1  0.75000000  0.83715658  0.54381747  1
  Ta  Ta0  1  0.25000000  0.65947590  0.38516221  1
  Ta  Ta1  1  0.75000000  0.84052410  0.88516221  1
  Ta  Ta2  1  0.25000000  0.15947590  0.11483779  1
  Ta  Ta3  1  0.75000000  0.34052410  0.61483779  1
