# generated using pymatgen
data_3635_NbPt2
_symmetry_space_group_name_H-M   'Immm'
_cell_length_a   2.81826919
_cell_length_b   3.98036426
_cell_length_c   4.91562301
_cell_angle_alpha   113.88290243
_cell_angle_beta   106.65836920
_cell_angle_gamma   90.00000000
_chemical_formula_structural   NbPt2
_chemical_formula_sum   'Nb1 Pt2'
_cell_volume   47.87867283
loop_
 _symmetry_equiv_pos_site_id
 _symmetry_equiv_pos_as_xyz
  1  'x, y, z'
loop_
 _atom_type_symbol
  Nb
  Pt
loop_
 _atom_site_type_symbol
 _atom_site_label
 _atom_site_symmetry_multiplicity
 _atom_site_fract_x
 _atom_site_fract_y
 _atom_site_fract_z
 _atom_site_occupancy
  Nb  Nb0  1  0.00000000  0.00000000  0.00000000  1
  Pt  Pt0  1  0.66384161  0.66384161  0.32768321  1
  Pt  Pt1  1  0.33615839  0.33615839  0.67231679  1
