# generated using pymatgen
data_363_Nb8P
_symmetry_space_group_name_H-M   'I4/mmm'
_cell_length_a   7.03300803
_cell_length_b   7.03300803
_cell_length_c   7.03300803
_cell_angle_alpha   93.26059568
_cell_angle_beta   93.26059568
_cell_angle_gamma   152.40514305
_chemical_formula_structural   Nb8P
_chemical_formula_sum   'Nb8 P1'
_cell_volume   156.49173956
loop_
 _symmetry_equiv_pos_site_id
 _symmetry_equiv_pos_as_xyz
  1  'x, y, z'
loop_
 _atom_type_symbol
  Nb
  P
loop_
 _atom_site_type_symbol
 _atom_site_label
 _atom_site_symmetry_multiplicity
 _atom_site_fract_x
 _atom_site_fract_y
 _atom_site_fract_z
 _atom_site_occupancy
  Nb  Nb0  1  0.34054409  0.65945591  0.00000000  1
  Nb  Nb1  1  0.65945591  0.34054409  0.00000000  1
  Nb  Nb2  1  0.00000000  0.32936032  0.32936032  1
  Nb  Nb3  1  0.65945591  0.65945591  0.31891182  1
  Nb  Nb4  1  0.32936032  1.00000000  0.32936032  1
  Nb  Nb5  1  0.34054409  0.34054409  0.68108818  1
  Nb  Nb6  1  0.00000000  0.67063968  0.67063968  1
  Nb  Nb7  1  0.67063968  0.00000000  0.67063968  1
  P  P0  1  0.00000000  0.00000000  0.00000000  1
