# generated using pymatgen
data_3642_Ca2Nb2
_symmetry_space_group_name_H-M   'Cmcm'
_cell_length_a   8.75110740
_cell_length_b   8.75110740
_cell_length_c   3.63192272
_cell_angle_alpha   90.00000000
_cell_angle_beta   90.00000000
_cell_angle_gamma   156.86304587
_chemical_formula_structural   Ca2Nb2
_chemical_formula_sum   'Ca2 Nb2'
_cell_volume   109.28942447
loop_
 _symmetry_equiv_pos_site_id
 _symmetry_equiv_pos_as_xyz
  1  'x, y, z'
loop_
 _atom_type_symbol
  Ca
  Nb
loop_
 _atom_site_type_symbol
 _atom_site_label
 _atom_site_symmetry_multiplicity
 _atom_site_fract_x
 _atom_site_fract_y
 _atom_site_fract_z
 _atom_site_occupancy
  Ca  Ca0  1  0.90732772  0.09267228  0.75000000  1
  Ca  Ca1  1  0.09267228  0.90732772  0.25000000  1
  Nb  Nb0  1  0.72020340  0.27979660  0.75000000  1
  Nb  Nb1  1  0.27979660  0.72020340  0.25000000  1
