# generated using pymatgen
data_3645_Al4K5
_symmetry_space_group_name_H-M   'I4/mmm'
_cell_length_a   8.56264220
_cell_length_b   8.56264220
_cell_length_c   8.56264220
_cell_angle_alpha   93.87521545
_cell_angle_beta   93.87521545
_cell_angle_gamma   149.86359266
_chemical_formula_structural   Al4K5
_chemical_formula_sum   'Al4 K5'
_cell_volume   304.35767907
loop_
 _symmetry_equiv_pos_site_id
 _symmetry_equiv_pos_as_xyz
  1  'x, y, z'
loop_
 _atom_type_symbol
  Al
  K
loop_
 _atom_site_type_symbol
 _atom_site_label
 _atom_site_symmetry_multiplicity
 _atom_site_fract_x
 _atom_site_fract_y
 _atom_site_fract_z
 _atom_site_occupancy
  Al  Al0  1  0.61830177  1.00000000  0.61830177  1
  Al  Al1  1  0.38169823  1.00000000  0.38169823  1
  Al  Al2  1  0.00000000  0.38169823  0.38169823  1
  Al  Al3  1  1.00000000  0.61830177  0.61830177  1
  K  K0  1  0.00000000  0.00000000  0.00000000  1
  K  K1  1  0.67545479  0.32454521  0.00000000  1
  K  K2  1  0.32454521  0.67545479  0.00000000  1
  K  K3  1  0.32454521  0.32454521  0.64909042  1
  K  K4  1  0.67545479  0.67545479  0.35090958  1
