# generated using pymatgen
data_3648_PdAs3
_symmetry_space_group_name_H-M   'Pmm2'
_cell_length_a   3.63183288
_cell_length_b   5.23537007
_cell_length_c   4.01549079
_cell_angle_alpha   90.00000000
_cell_angle_beta   90.00000000
_cell_angle_gamma   90.00000000
_chemical_formula_structural   PdAs3
_chemical_formula_sum   'As3 Pd1'
_cell_volume   76.35049835
loop_
 _symmetry_equiv_pos_site_id
 _symmetry_equiv_pos_as_xyz
  1  'x, y, z'
loop_
 _atom_type_symbol
  As
  Pd
loop_
 _atom_site_type_symbol
 _atom_site_label
 _atom_site_symmetry_multiplicity
 _atom_site_fract_x
 _atom_site_fract_y
 _atom_site_fract_z
 _atom_site_occupancy
  As  As0  1  0.00000000  0.00000000  0.19082140  1
  As  As1  1  0.50000000  0.00000000  0.60416156  1
  As  As2  1  0.50000000  0.50000000  0.69989134  1
  Pd  Pd0  1  0.00000000  0.50000000  0.17179237  1
