# generated using pymatgen
data_3652_V2Ge
_symmetry_space_group_name_H-M   'I4/mmm'
_cell_length_a   4.65337848
_cell_length_b   4.65337848
_cell_length_c   4.65337848
_cell_angle_alpha   139.95925311
_cell_angle_beta   139.95925311
_cell_angle_gamma   57.91517215
_chemical_formula_structural   V2Ge
_chemical_formula_sum   'Ge1 V2'
_cell_volume   41.33461588
loop_
 _symmetry_equiv_pos_site_id
 _symmetry_equiv_pos_as_xyz
  1  'x, y, z'
loop_
 _atom_type_symbol
  Ge
  V
loop_
 _atom_site_type_symbol
 _atom_site_label
 _atom_site_symmetry_multiplicity
 _atom_site_fract_x
 _atom_site_fract_y
 _atom_site_fract_z
 _atom_site_occupancy
  Ge  Ge0  1  0.00000000  0.00000000  0.00000000  1
  V  V0  1  0.67295174  0.67295174  0.00000000  1
  V  V1  1  0.32704826  0.32704826  0.00000000  1
