# generated using pymatgen
data_3653_Ag5Pt5
_symmetry_space_group_name_H-M   'P-1'
_cell_length_a   4.95425182
_cell_length_b   7.57400076
_cell_length_c   4.94538727
_cell_angle_alpha   71.14890990
_cell_angle_beta   79.99940912
_cell_angle_gamma   71.22996188
_chemical_formula_structural   Ag5Pt5
_chemical_formula_sum   'Ag5 Pt5'
_cell_volume   165.77138362
loop_
 _symmetry_equiv_pos_site_id
 _symmetry_equiv_pos_as_xyz
  1  'x, y, z'
loop_
 _atom_type_symbol
  Ag
  Pt
loop_
 _atom_site_type_symbol
 _atom_site_label
 _atom_site_symmetry_multiplicity
 _atom_site_fract_x
 _atom_site_fract_y
 _atom_site_fract_z
 _atom_site_occupancy
  Ag  Ag0  1  0.00090503  0.99896577  0.99911041  1
  Ag  Ag1  1  0.50000000  0.90000000  0.30000000  1
  Ag  Ag2  1  0.99909497  0.80103423  0.60088959  1
  Ag  Ag3  1  0.49748177  0.50131504  0.50254494  1
  Ag  Ag4  1  0.50251823  0.29868496  0.09745506  1
  Pt  Pt0  1  0.50703135  0.70038374  0.90631725  1
  Pt  Pt1  1  0.00586472  0.59193064  0.19504300  1
  Pt  Pt2  1  1.00000000  0.40000000  0.80000000  1
  Pt  Pt3  1  0.99413528  0.20806936  0.40495700  1
  Pt  Pt4  1  0.49296865  0.09961626  0.69368275  1
