# generated using pymatgen
data_3655_IrSn2
_symmetry_space_group_name_H-M   'I4/mmm'
_cell_length_a   6.73970382
_cell_length_b   6.73970382
_cell_length_c   6.73970382
_cell_angle_alpha   152.64183606
_cell_angle_beta   152.65136057
_cell_angle_gamma   39.06979905
_chemical_formula_structural   IrSn2
_chemical_formula_sum   'Ir1 Sn2'
_cell_volume   64.51909996
loop_
 _symmetry_equiv_pos_site_id
 _symmetry_equiv_pos_as_xyz
  1  'x, y, z'
loop_
 _atom_type_symbol
  Ir
  Sn
loop_
 _atom_site_type_symbol
 _atom_site_label
 _atom_site_symmetry_multiplicity
 _atom_site_fract_x
 _atom_site_fract_y
 _atom_site_fract_z
 _atom_site_occupancy
  Ir  Ir0  1  0.00000000  0.00000000  0.00000000  1
  Sn  Sn0  1  0.36168170  0.36168170  0.00000000  1
  Sn  Sn1  1  0.63831830  0.63831830  1.00000000  1
