# generated using pymatgen
data_3658_Al2Ta2
_symmetry_space_group_name_H-M   'P6_3/mmc'
_cell_length_a   4.57168283
_cell_length_b   4.57168283
_cell_length_c   5.18546206
_cell_angle_alpha   90.00000000
_cell_angle_beta   90.00000000
_cell_angle_gamma   119.99998305
_chemical_formula_structural   Al2Ta2
_chemical_formula_sum   'Al2 Ta2'
_cell_volume   93.85779607
loop_
 _symmetry_equiv_pos_site_id
 _symmetry_equiv_pos_as_xyz
  1  'x, y, z'
loop_
 _atom_type_symbol
  Al
  Ta
loop_
 _atom_site_type_symbol
 _atom_site_label
 _atom_site_symmetry_multiplicity
 _atom_site_fract_x
 _atom_site_fract_y
 _atom_site_fract_z
 _atom_site_occupancy
  Al  Al0  1  0.33333318  0.66666589  0.43738381  1
  Al  Al1  1  0.00000000  0.00000000  0.93738496  1
  Ta  Ta0  1  0.00000000  0.00000000  0.43761514  1
  Ta  Ta1  1  0.33333318  0.66666589  0.93761593  1
