# generated using pymatgen
data_3659_Nb4As5
_symmetry_space_group_name_H-M   'I4/mmm'
_cell_length_a   6.99357008
_cell_length_b   6.99357008
_cell_length_c   6.99357008
_cell_angle_alpha   93.49525406
_cell_angle_beta   93.49525406
_cell_angle_gamma   151.41021162
_chemical_formula_structural   Nb4As5
_chemical_formula_sum   'As5 Nb4'
_cell_volume   158.61765640
loop_
 _symmetry_equiv_pos_site_id
 _symmetry_equiv_pos_as_xyz
  1  'x, y, z'
loop_
 _atom_type_symbol
  As
  Nb
loop_
 _atom_site_type_symbol
 _atom_site_label
 _atom_site_symmetry_multiplicity
 _atom_site_fract_x
 _atom_site_fract_y
 _atom_site_fract_z
 _atom_site_occupancy
  As  As0  1  0.00000000  0.00000000  0.00000000  1
  As  As1  1  0.67160207  0.32839793  0.00000000  1
  As  As2  1  0.32839793  0.67160207  0.00000000  1
  As  As3  1  0.32839793  0.32839793  0.65679587  1
  As  As4  1  0.67160207  0.67160207  0.34320413  1
  Nb  Nb0  1  0.67712408  0.00000000  0.67712408  1
  Nb  Nb1  1  0.32287592  0.00000000  0.32287592  1
  Nb  Nb2  1  1.00000000  0.32287592  0.32287592  1
  Nb  Nb3  1  0.00000000  0.67712408  0.67712408  1
