# generated using pymatgen
data_3660_Cu5P4
_symmetry_space_group_name_H-M   'I4/mmm'
_cell_length_a   6.04035072
_cell_length_b   6.04035072
_cell_length_c   6.04035072
_cell_angle_alpha   95.43393664
_cell_angle_beta   95.43393664
_cell_angle_gamma   144.15499092
_chemical_formula_structural   Cu5P4
_chemical_formula_sum   'Cu5 P4'
_cell_volume   122.79489148
loop_
 _symmetry_equiv_pos_site_id
 _symmetry_equiv_pos_as_xyz
  1  'x, y, z'
loop_
 _atom_type_symbol
  Cu
  P
loop_
 _atom_site_type_symbol
 _atom_site_label
 _atom_site_symmetry_multiplicity
 _atom_site_fract_x
 _atom_site_fract_y
 _atom_site_fract_z
 _atom_site_occupancy
  Cu  Cu0  1  0.00000000  0.00000000  0.00000000  1
  Cu  Cu1  1  0.66721007  0.33278993  0.00000000  1
  Cu  Cu2  1  0.33278993  0.66721007  0.00000000  1
  Cu  Cu3  1  0.33278993  0.33278993  0.66557986  1
  Cu  Cu4  1  0.66721007  0.66721007  0.33442014  1
  P  P0  1  0.71125510  1.00000000  0.71125510  1
  P  P1  1  0.28874490  1.00000000  0.28874490  1
  P  P2  1  0.00000000  0.28874490  0.28874490  1
  P  P3  1  0.00000000  0.71125510  0.71125510  1
