# generated using pymatgen
data_3662_Sb2Ge2
_symmetry_space_group_name_H-M   'P4/nmm'
_cell_length_a   3.30625844
_cell_length_b   3.30625844
_cell_length_c   8.59851456
_cell_angle_alpha   90.00000000
_cell_angle_beta   90.00000000
_cell_angle_gamma   90.00000000
_chemical_formula_structural   Sb2Ge2
_chemical_formula_sum   'Ge2 Sb2'
_cell_volume   93.99332804
loop_
 _symmetry_equiv_pos_site_id
 _symmetry_equiv_pos_as_xyz
  1  'x, y, z'
loop_
 _atom_type_symbol
  Ge
  Sb
loop_
 _atom_site_type_symbol
 _atom_site_label
 _atom_site_symmetry_multiplicity
 _atom_site_fract_x
 _atom_site_fract_y
 _atom_site_fract_z
 _atom_site_occupancy
  Ge  Ge0  1  0.00000000  0.00000000  0.97203488  1
  Ge  Ge1  1  0.50000000  0.50000000  0.77796512  1
  Sb  Sb0  1  0.00000000  0.00000000  0.53369439  1
  Sb  Sb1  1  0.50000000  0.50000000  0.21630561  1
