# generated using pymatgen
data_3663_Ba4Sr8
_symmetry_space_group_name_H-M   'Pnma'
_cell_length_a   6.21632648
_cell_length_b   8.67181825
_cell_length_c   12.94975998
_cell_angle_alpha   90.00000000
_cell_angle_beta   90.00000000
_cell_angle_gamma   90.00000000
_chemical_formula_structural   Ba4Sr8
_chemical_formula_sum   'Ba4 Sr8'
_cell_volume   698.08081303
loop_
 _symmetry_equiv_pos_site_id
 _symmetry_equiv_pos_as_xyz
  1  'x, y, z'
loop_
 _atom_type_symbol
  Ba
  Sr
loop_
 _atom_site_type_symbol
 _atom_site_label
 _atom_site_symmetry_multiplicity
 _atom_site_fract_x
 _atom_site_fract_y
 _atom_site_fract_z
 _atom_site_occupancy
  Ba  Ba0  1  0.25000000  0.63151106  0.41617125  1
  Ba  Ba1  1  0.75000000  0.86848894  0.91617125  1
  Ba  Ba2  1  0.25000000  0.13151106  0.08382875  1
  Ba  Ba3  1  0.75000000  0.36848894  0.58382875  1
  Sr  Sr0  1  0.25000000  0.11169233  0.74743292  1
  Sr  Sr1  1  0.75000000  0.38830767  0.24743292  1
  Sr  Sr2  1  0.25000000  0.61169233  0.75256708  1
  Sr  Sr3  1  0.75000000  0.88830767  0.25256708  1
  Sr  Sr4  1  0.25000000  0.12685957  0.41517853  1
  Sr  Sr5  1  0.75000000  0.37314043  0.91517853  1
  Sr  Sr6  1  0.25000000  0.62685957  0.08482147  1
  Sr  Sr7  1  0.75000000  0.87314043  0.58482147  1
