# generated using pymatgen
data_3669_Ba3Sr
_symmetry_space_group_name_H-M   'Pmm2'
_cell_length_a   4.41824951
_cell_length_b   7.28321521
_cell_length_c   7.65001022
_cell_angle_alpha   90.00000000
_cell_angle_beta   90.00000000
_cell_angle_gamma   90.00000000
_chemical_formula_structural   Ba3Sr
_chemical_formula_sum   'Ba3 Sr1'
_cell_volume   246.17015342
loop_
 _symmetry_equiv_pos_site_id
 _symmetry_equiv_pos_as_xyz
  1  'x, y, z'
loop_
 _atom_type_symbol
  Ba
  Sr
loop_
 _atom_site_type_symbol
 _atom_site_label
 _atom_site_symmetry_multiplicity
 _atom_site_fract_x
 _atom_site_fract_y
 _atom_site_fract_z
 _atom_site_occupancy
  Ba  Ba0  1  0.00000000  0.00000000  0.00032321  1
  Ba  Ba1  1  0.50000000  0.00000000  0.49936972  1
  Ba  Ba2  1  0.50000000  0.50000000  0.83306077  1
  Sr  Sr0  1  0.00000000  0.50000000  0.33391297  1
