# generated using pymatgen
data_3670_Pd4As2
_symmetry_space_group_name_H-M   'Cmcm'
_cell_length_a   6.99163528
_cell_length_b   6.99163528
_cell_length_c   4.75384200
_cell_angle_alpha   90.00000000
_cell_angle_beta   90.00000000
_cell_angle_gamma   155.10356686
_chemical_formula_structural   Pd4As2
_chemical_formula_sum   'As2 Pd4'
_cell_volume   97.82797482
loop_
 _symmetry_equiv_pos_site_id
 _symmetry_equiv_pos_as_xyz
  1  'x, y, z'
loop_
 _atom_type_symbol
  As
  Pd
loop_
 _atom_site_type_symbol
 _atom_site_label
 _atom_site_symmetry_multiplicity
 _atom_site_fract_x
 _atom_site_fract_y
 _atom_site_fract_z
 _atom_site_occupancy
  As  As0  1  0.02319662  0.97680338  0.00000000  1
  As  As1  1  0.42124783  0.57875217  0.50000000  1
  Pd  Pd0  1  0.35181486  0.64818514  0.00000000  1
  Pd  Pd1  1  0.66930439  0.33069561  0.00000000  1
  Pd  Pd2  1  0.77514006  0.22485994  0.50000000  1
  Pd  Pd3  1  0.09262959  0.90737041  0.50000000  1
