# generated using pymatgen
data_3675_Au4Sb12
_symmetry_space_group_name_H-M   'Pnma'
_cell_length_a   6.53349497
_cell_length_b   6.66673240
_cell_length_c   9.69061952
_cell_angle_alpha   90.00000000
_cell_angle_beta   90.00000000
_cell_angle_gamma   90.00000000
_chemical_formula_structural   Au4Sb12
_chemical_formula_sum   'Au4 Sb12'
_cell_volume   422.09492108
loop_
 _symmetry_equiv_pos_site_id
 _symmetry_equiv_pos_as_xyz
  1  'x, y, z'
loop_
 _atom_type_symbol
  Au
  Sb
loop_
 _atom_site_type_symbol
 _atom_site_label
 _atom_site_symmetry_multiplicity
 _atom_site_fract_x
 _atom_site_fract_y
 _atom_site_fract_z
 _atom_site_occupancy
  Au  Au0  1  0.53603321  0.92236593  0.75000000  1
  Au  Au1  1  0.03603321  0.57763407  0.25000000  1
  Au  Au2  1  0.96396679  0.42236593  0.75000000  1
  Au  Au3  1  0.46396679  0.07763407  0.25000000  1
  Sb  Sb0  1  0.12511974  0.03309710  0.75000000  1
  Sb  Sb1  1  0.62511974  0.46690290  0.25000000  1
  Sb  Sb2  1  0.37488026  0.53309710  0.75000000  1
  Sb  Sb3  1  0.87488026  0.96690290  0.25000000  1
  Sb  Sb4  1  0.63771789  0.26129644  0.92301455  1
  Sb  Sb5  1  0.13771789  0.23870356  0.07698545  1
  Sb  Sb6  1  0.86228211  0.76129644  0.57698545  1
  Sb  Sb7  1  0.36228211  0.73870356  0.42301455  1
  Sb  Sb8  1  0.36228211  0.73870356  0.07698545  1
  Sb  Sb9  1  0.86228211  0.76129644  0.92301455  1
  Sb  Sb10  1  0.13771789  0.23870356  0.42301455  1
  Sb  Sb11  1  0.63771789  0.26129644  0.57698545  1
