# generated using pymatgen
data_3680_Pd4W2
_symmetry_space_group_name_H-M   'I4/mcm'
_cell_length_a   4.96673555
_cell_length_b   5.13567713
_cell_length_c   5.13567713
_cell_angle_alpha   103.52223474
_cell_angle_beta   118.91765748
_cell_angle_gamma   61.08234252
_chemical_formula_structural   Pd4W2
_chemical_formula_sum   'Pd4 W2'
_cell_volume   100.36811022
loop_
 _symmetry_equiv_pos_site_id
 _symmetry_equiv_pos_as_xyz
  1  'x, y, z'
loop_
 _atom_type_symbol
  Pd
  W
loop_
 _atom_site_type_symbol
 _atom_site_label
 _atom_site_symmetry_multiplicity
 _atom_site_fract_x
 _atom_site_fract_y
 _atom_site_fract_z
 _atom_site_occupancy
  Pd  Pd0  1  0.14642009  0.20715982  0.50000000  1
  Pd  Pd1  1  0.35357991  0.50000000  0.20715982  1
  Pd  Pd2  1  0.64642009  0.50000000  0.79284018  1
  Pd  Pd3  1  0.85357991  0.79284018  0.50000000  1
  W  W0  1  0.25000000  0.00000000  0.00000000  1
  W  W1  1  0.75000000  0.00000000  0.00000000  1
