# generated using pymatgen
data_3681_Mn6Rh2
_symmetry_space_group_name_H-M   'Pmmn'
_cell_length_a   5.13735391
_cell_length_b   4.03637065
_cell_length_c   4.48955226
_cell_angle_alpha   90.00000000
_cell_angle_beta   90.00000000
_cell_angle_gamma   90.00000000
_chemical_formula_structural   Mn6Rh2
_chemical_formula_sum   'Mn6 Rh2'
_cell_volume   93.09654333
loop_
 _symmetry_equiv_pos_site_id
 _symmetry_equiv_pos_as_xyz
  1  'x, y, z'
loop_
 _atom_type_symbol
  Mn
  Rh
loop_
 _atom_site_type_symbol
 _atom_site_label
 _atom_site_symmetry_multiplicity
 _atom_site_fract_x
 _atom_site_fract_y
 _atom_site_fract_z
 _atom_site_occupancy
  Mn  Mn0  1  0.00000000  0.50000000  0.30473020  1
  Mn  Mn1  1  0.24515160  0.00000000  0.15496146  1
  Mn  Mn2  1  0.25484840  0.50000000  0.84503854  1
  Mn  Mn3  1  0.50000000  0.00000000  0.69526980  1
  Mn  Mn4  1  0.75484840  0.00000000  0.15496146  1
  Mn  Mn5  1  0.74515160  0.50000000  0.84503854  1
  Rh  Rh0  1  0.00000000  0.00000000  0.65930647  1
  Rh  Rh1  1  0.50000000  0.50000000  0.34069353  1
