# generated using pymatgen
data_3683_Pd18As6
_symmetry_space_group_name_H-M   'Pmmn'
_cell_length_a   4.95541442
_cell_length_b   5.66647910
_cell_length_c   13.55046608
_cell_angle_alpha   90.00000000
_cell_angle_beta   90.00000000
_cell_angle_gamma   90.00000000
_chemical_formula_structural   Pd18As6
_chemical_formula_sum   'As6 Pd18'
_cell_volume   380.49373030
loop_
 _symmetry_equiv_pos_site_id
 _symmetry_equiv_pos_as_xyz
  1  'x, y, z'
loop_
 _atom_type_symbol
  As
  Pd
loop_
 _atom_site_type_symbol
 _atom_site_label
 _atom_site_symmetry_multiplicity
 _atom_site_fract_x
 _atom_site_fract_y
 _atom_site_fract_z
 _atom_site_occupancy
  As  As0  1  0.90575863  0.25000000  0.75000000  1
  As  As1  1  0.67716968  0.25000000  0.40784330  1
  As  As2  1  0.67716968  0.25000000  0.09215670  1
  As  As3  1  0.09424137  0.75000000  0.25000000  1
  As  As4  1  0.32283032  0.75000000  0.90784330  1
  As  As5  1  0.32283032  0.75000000  0.59215670  1
  Pd  Pd0  1  0.24616486  0.00039476  0.43875662  1
  Pd  Pd1  1  0.24616486  0.00039476  0.06124338  1
  Pd  Pd2  1  0.51891990  0.99011036  0.75000000  1
  Pd  Pd3  1  0.48108010  0.00988964  0.25000000  1
  Pd  Pd4  1  0.75383514  0.99960524  0.93875662  1
  Pd  Pd5  1  0.75383514  0.99960524  0.56124338  1
  Pd  Pd6  1  0.98090564  0.25000000  0.25000000  1
  Pd  Pd7  1  0.22801172  0.25000000  0.88435476  1
  Pd  Pd8  1  0.22801172  0.25000000  0.61564524  1
  Pd  Pd9  1  0.24616486  0.49960524  0.43875662  1
  Pd  Pd10  1  0.24616486  0.49960524  0.06124338  1
  Pd  Pd11  1  0.51891990  0.50988964  0.75000000  1
  Pd  Pd12  1  0.48108010  0.49011036  0.25000000  1
  Pd  Pd13  1  0.75383514  0.50039476  0.93875662  1
  Pd  Pd14  1  0.75383514  0.50039476  0.56124338  1
  Pd  Pd15  1  0.01909436  0.75000000  0.75000000  1
  Pd  Pd16  1  0.77198828  0.75000000  0.38435476  1
  Pd  Pd17  1  0.77198828  0.75000000  0.11564524  1
