# generated using pymatgen
data_3691_BaRh2
_symmetry_space_group_name_H-M   'I4/mmm'
_cell_length_a   6.02256993
_cell_length_b   6.02256993
_cell_length_c   6.02256993
_cell_angle_alpha   145.45155449
_cell_angle_beta   145.45155449
_cell_angle_gamma   49.66211283
_chemical_formula_structural   BaRh2
_chemical_formula_sum   'Ba1 Rh2'
_cell_volume   69.92444204
loop_
 _symmetry_equiv_pos_site_id
 _symmetry_equiv_pos_as_xyz
  1  'x, y, z'
loop_
 _atom_type_symbol
  Ba
  Rh
loop_
 _atom_site_type_symbol
 _atom_site_label
 _atom_site_symmetry_multiplicity
 _atom_site_fract_x
 _atom_site_fract_y
 _atom_site_fract_z
 _atom_site_occupancy
  Ba  Ba0  1  0.00000000  0.00000000  0.00000000  1
  Rh  Rh0  1  0.72072016  0.72072016  0.00000000  1
  Rh  Rh1  1  0.27927984  0.27927984  0.00000000  1
