# generated using pymatgen
data_3693_NiSb
_symmetry_space_group_name_H-M   'R -3 m'
_cell_length_a   4.15684235
_cell_length_b   4.15684235
_cell_length_c   4.15684228
_cell_angle_alpha   46.73301651
_cell_angle_beta   46.73301651
_cell_angle_gamma   46.73301995
_chemical_formula_structural   NiSb
_chemical_formula_sum   'Ni1 Sb1'
_cell_volume   34.79350743
loop_
 _symmetry_equiv_pos_site_id
 _symmetry_equiv_pos_as_xyz
  1  'x, y, z'
loop_
 _atom_type_symbol
  Ni
  Sb
loop_
 _atom_site_type_symbol
 _atom_site_label
 _atom_site_symmetry_multiplicity
 _atom_site_fract_x
 _atom_site_fract_y
 _atom_site_fract_z
 _atom_site_occupancy
  Ni  Ni0  1  0.00000000  0.00000000  0.00000000  1
  Sb  Sb0  1  0.50000033  0.50000033  0.50000059  1
