# generated using pymatgen
data_3697_AlPt2
_symmetry_space_group_name_H-M   'I4/mmm'
_cell_length_a   5.76751424
_cell_length_b   5.76751424
_cell_length_c   4.07568464
_cell_angle_alpha   90.00000000
_cell_angle_beta   90.00000000
_cell_angle_gamma   138.59552829
_chemical_formula_structural   AlPt2
_chemical_formula_sum   'Al2 Pt4'
_cell_volume   89.66494406
loop_
 _symmetry_equiv_pos_site_id
 _symmetry_equiv_pos_as_xyz
  1  'x, y, z'
loop_
 _atom_type_symbol
  Al
  Pt
loop_
 _atom_site_type_symbol
 _atom_site_label
 _atom_site_symmetry_multiplicity
 _atom_site_fract_x
 _atom_site_fract_y
 _atom_site_fract_z
 _atom_site_occupancy
  Al  Al0  1  0.25002649  0.25002649  0.25000000  1
  Al  Al1  1  0.74997351  0.74997351  0.75000000  1
  Pt  Pt0  1  0.60011637  0.89990183  0.25000000  1
  Pt  Pt1  1  0.39988363  0.10009817  0.75000000  1
  Pt  Pt2  1  0.89990183  0.60011637  0.25000000  1
  Pt  Pt3  1  0.10009817  0.39988363  0.75000000  1
