# generated using pymatgen
data_3698_InW3
_symmetry_space_group_name_H-M   'Pmm2'
_cell_length_a   2.77010495
_cell_length_b   4.77666490
_cell_length_c   5.21019071
_cell_angle_alpha   90.00000000
_cell_angle_beta   90.00000000
_cell_angle_gamma   90.00000000
_chemical_formula_structural   InW3
_chemical_formula_sum   'In1 W3'
_cell_volume   68.94053012
loop_
 _symmetry_equiv_pos_site_id
 _symmetry_equiv_pos_as_xyz
  1  'x, y, z'
loop_
 _atom_type_symbol
  In
  W
loop_
 _atom_site_type_symbol
 _atom_site_label
 _atom_site_symmetry_multiplicity
 _atom_site_fract_x
 _atom_site_fract_y
 _atom_site_fract_z
 _atom_site_occupancy
  In  In0  1  0.00000000  0.00000000  0.01183171  1
  W  W0  1  0.50000000  0.00000000  0.51705368  1
  W  W1  1  0.50000000  0.50000000  0.81328170  1
  W  W2  1  0.00000000  0.50000000  0.32449958  1
