# generated using pymatgen
data_369_Ba3Sn
_symmetry_space_group_name_H-M   'Immm'
_cell_length_a   7.50475898
_cell_length_b   7.50475898
_cell_length_c   7.50475898
_cell_angle_alpha   142.26084981
_cell_angle_beta   132.52286024
_cell_angle_gamma   62.18036146
_chemical_formula_structural   Ba3Sn
_chemical_formula_sum   'Ba3 Sn1'
_cell_volume   188.50355479
loop_
 _symmetry_equiv_pos_site_id
 _symmetry_equiv_pos_as_xyz
  1  'x, y, z'
loop_
 _atom_type_symbol
  Ba
  Sn
loop_
 _atom_site_type_symbol
 _atom_site_label
 _atom_site_symmetry_multiplicity
 _atom_site_fract_x
 _atom_site_fract_y
 _atom_site_fract_z
 _atom_site_occupancy
  Ba  Ba0  1  0.29702452  0.29702452  1.00000000  1
  Ba  Ba1  1  0.70297548  0.70297548  1.00000000  1
  Ba  Ba2  1  0.00000000  0.50000000  0.50000000  1
  Sn  Sn0  1  0.50000000  0.00000000  0.50000000  1
