# generated using pymatgen
data_3703_CuFe2
_symmetry_space_group_name_H-M   'Fmmm'
_cell_length_a   2.46306728
_cell_length_b   6.28929936
_cell_length_c   2.46307429
_cell_angle_alpha   82.24871548
_cell_angle_beta   71.80744314
_cell_angle_gamma   97.73701677
_chemical_formula_structural   CuFe2
_chemical_formula_sum   'Cu1 Fe2'
_cell_volume   35.27819384
loop_
 _symmetry_equiv_pos_site_id
 _symmetry_equiv_pos_as_xyz
  1  'x, y, z'
loop_
 _atom_type_symbol
  Cu
  Fe
loop_
 _atom_site_type_symbol
 _atom_site_label
 _atom_site_symmetry_multiplicity
 _atom_site_fract_x
 _atom_site_fract_y
 _atom_site_fract_z
 _atom_site_occupancy
  Cu  Cu0  1  0.00000000  0.00000000  0.00000000  1
  Fe  Fe0  1  0.33128827  0.66265187  0.66867359  1
  Fe  Fe1  1  0.66871173  0.33734813  0.33132641  1
