# generated using pymatgen
data_3706_BaPd5
_symmetry_space_group_name_H-M   'P6/mmm'
_cell_length_a   5.54604469
_cell_length_b   5.54604508
_cell_length_c   4.39257666
_cell_angle_alpha   90.00000000
_cell_angle_beta   90.00000000
_cell_angle_gamma   120.00464474
_chemical_formula_structural   BaPd5
_chemical_formula_sum   'Ba1 Pd5'
_cell_volume   117.00284260
loop_
 _symmetry_equiv_pos_site_id
 _symmetry_equiv_pos_as_xyz
  1  'x, y, z'
loop_
 _atom_type_symbol
  Ba
  Pd
loop_
 _atom_site_type_symbol
 _atom_site_label
 _atom_site_symmetry_multiplicity
 _atom_site_fract_x
 _atom_site_fract_y
 _atom_site_fract_z
 _atom_site_occupancy
  Ba  Ba0  1  0.00000371  0.00000371  0.00000000  1
  Pd  Pd0  1  0.66669605  0.33339484  0.00000000  1
  Pd  Pd1  1  0.33339484  0.66669605  0.00000000  1
  Pd  Pd2  1  0.50000179  0.00000404  0.50000000  1
  Pd  Pd3  1  0.00000404  0.50000179  0.50000000  1
  Pd  Pd4  1  0.49999956  0.49999956  0.50000000  1
