# generated using pymatgen
data_3710_Al2K4
_symmetry_space_group_name_H-M   'I4/mcm'
_cell_length_a   7.35359393
_cell_length_b   7.35359393
_cell_length_c   7.35359393
_cell_angle_alpha   98.22286940
_cell_angle_beta   98.22286940
_cell_angle_gamma   135.55737945
_chemical_formula_structural   Al2K4
_chemical_formula_sum   'Al2 K4'
_cell_volume   257.75199468
loop_
 _symmetry_equiv_pos_site_id
 _symmetry_equiv_pos_as_xyz
  1  'x, y, z'
loop_
 _atom_type_symbol
  Al
  K
loop_
 _atom_site_type_symbol
 _atom_site_label
 _atom_site_symmetry_multiplicity
 _atom_site_fract_x
 _atom_site_fract_y
 _atom_site_fract_z
 _atom_site_occupancy
  Al  Al0  1  0.75000000  0.75000000  0.00000000  1
  Al  Al1  1  0.25000000  0.25000000  0.00000000  1
  K  K0  1  0.33505697  0.16494303  0.50000000  1
  K  K1  1  0.66494303  0.83505697  0.50000000  1
  K  K2  1  0.16494303  0.66494303  0.82988606  1
  K  K3  1  0.83505697  0.33505697  0.17011394  1
