# generated using pymatgen
data_3717_Fe18Pb6
_symmetry_space_group_name_H-M   'Pmmn'
_cell_length_a   4.58891060
_cell_length_b   5.22723387
_cell_length_c   12.92909205
_cell_angle_alpha   90.00000000
_cell_angle_beta   90.00000000
_cell_angle_gamma   90.00000000
_chemical_formula_structural   Fe18Pb6
_chemical_formula_sum   'Fe18 Pb6'
_cell_volume   310.13412499
loop_
 _symmetry_equiv_pos_site_id
 _symmetry_equiv_pos_as_xyz
  1  'x, y, z'
loop_
 _atom_type_symbol
  Fe
  Pb
loop_
 _atom_site_type_symbol
 _atom_site_label
 _atom_site_symmetry_multiplicity
 _atom_site_fract_x
 _atom_site_fract_y
 _atom_site_fract_z
 _atom_site_occupancy
  Fe  Fe0  1  0.16668408  0.99999872  0.41667143  1
  Fe  Fe1  1  0.16668408  0.99999872  0.08332857  1
  Fe  Fe2  1  0.50081025  0.99962023  0.75000000  1
  Fe  Fe3  1  0.49918975  0.00037977  0.25000000  1
  Fe  Fe4  1  0.83331592  0.00000128  0.91667143  1
  Fe  Fe5  1  0.83331592  0.00000128  0.58332857  1
  Fe  Fe6  1  0.00161788  0.25000000  0.25000000  1
  Fe  Fe7  1  0.33340491  0.25000000  0.91679440  1
  Fe  Fe8  1  0.33340491  0.25000000  0.58320560  1
  Fe  Fe9  1  0.16668408  0.50000128  0.41667143  1
  Fe  Fe10  1  0.16668408  0.50000128  0.08332857  1
  Fe  Fe11  1  0.50081025  0.50037977  0.75000000  1
  Fe  Fe12  1  0.49918975  0.49962023  0.25000000  1
  Fe  Fe13  1  0.83331592  0.49999872  0.91667143  1
  Fe  Fe14  1  0.83331592  0.49999872  0.58332857  1
  Fe  Fe15  1  0.99838212  0.75000000  0.75000000  1
  Fe  Fe16  1  0.66659509  0.75000000  0.41679440  1
  Fe  Fe17  1  0.66659509  0.75000000  0.08320560  1
  Pb  Pb0  1  0.00000617  0.25000000  0.75000000  1
  Pb  Pb1  1  0.66658282  0.25000000  0.41673300  1
  Pb  Pb2  1  0.66658282  0.25000000  0.08326700  1
  Pb  Pb3  1  0.99999383  0.75000000  0.25000000  1
  Pb  Pb4  1  0.33341718  0.75000000  0.91673300  1
  Pb  Pb5  1  0.33341718  0.75000000  0.58326700  1
