# generated using pymatgen
data_371_Ag14Ca4
_symmetry_space_group_name_H-M   'Cmcm'
_cell_length_a   5.48572463
_cell_length_b   5.48572463
_cell_length_c   14.12600700
_cell_angle_alpha   90.00000000
_cell_angle_beta   90.00000000
_cell_angle_gamma   60.51955644
_chemical_formula_structural   Ag14Ca4
_chemical_formula_sum   'Ag14 Ca4'
_cell_volume   370.05649686
loop_
 _symmetry_equiv_pos_site_id
 _symmetry_equiv_pos_as_xyz
  1  'x, y, z'
loop_
 _atom_type_symbol
  Ag
  Ca
loop_
 _atom_site_type_symbol
 _atom_site_label
 _atom_site_symmetry_multiplicity
 _atom_site_fract_x
 _atom_site_fract_y
 _atom_site_fract_z
 _atom_site_occupancy
  Ag  Ag0  1  0.66410635  0.00729586  0.07594786  1
  Ag  Ag1  1  0.99270469  0.33589420  0.07594786  1
  Ag  Ag2  1  0.82711537  0.17288412  0.24999988  1
  Ag  Ag3  1  0.32798032  0.17340284  0.24999988  1
  Ag  Ag4  1  0.82659665  0.67201917  0.24999988  1
  Ag  Ag5  1  0.66410635  0.00729586  0.42405261  1
  Ag  Ag6  1  0.99270469  0.33589420  0.42405261  1
  Ag  Ag7  1  0.00729586  0.66410635  0.57594762  1
  Ag  Ag8  1  0.33589420  0.99270469  0.57594762  1
  Ag  Ag9  1  0.17340284  0.32798032  0.75000035  1
  Ag  Ag10  1  0.67201917  0.82659665  0.75000035  1
  Ag  Ag11  1  0.17288412  0.82711537  0.75000035  1
  Ag  Ag12  1  0.00729586  0.66410635  0.92405237  1
  Ag  Ag13  1  0.33589420  0.99270469  0.92405237  1
  Ca  Ca0  1  0.32206798  0.67793151  0.11473235  1
  Ca  Ca1  1  0.32206798  0.67793151  0.38526741  1
  Ca  Ca2  1  0.67793151  0.32206798  0.61473282  1
  Ca  Ca3  1  0.67793151  0.32206798  0.88526717  1
