# generated using pymatgen
data_3721_BaPb3
_symmetry_space_group_name_H-M   'P4/mmm'
_cell_length_a   3.76982358
_cell_length_b   3.76982358
_cell_length_c   9.87136056
_cell_angle_alpha   90.00000000
_cell_angle_beta   90.00000000
_cell_angle_gamma   90.08540027
_chemical_formula_structural   BaPb3
_chemical_formula_sum   'Ba1 Pb3'
_cell_volume   140.28737434
loop_
 _symmetry_equiv_pos_site_id
 _symmetry_equiv_pos_as_xyz
  1  'x, y, z'
loop_
 _atom_type_symbol
  Ba
  Pb
loop_
 _atom_site_type_symbol
 _atom_site_label
 _atom_site_symmetry_multiplicity
 _atom_site_fract_x
 _atom_site_fract_y
 _atom_site_fract_z
 _atom_site_occupancy
  Ba  Ba0  1  0.00000000  0.00000000  0.00000000  1
  Pb  Pb0  1  0.50000000  0.50000000  0.72958131  1
  Pb  Pb1  1  0.00000000  0.00000000  0.50000000  1
  Pb  Pb2  1  0.50000000  0.50000000  0.27041869  1
