# generated using pymatgen
data_3722_K2Pt
_symmetry_space_group_name_H-M   'I4/mmm'
_cell_length_a   5.79835608
_cell_length_b   5.79835608
_cell_length_c   5.79835608
_cell_angle_alpha   136.11617056
_cell_angle_beta   136.11617056
_cell_angle_gamma   63.80078478
_chemical_formula_structural   K2Pt
_chemical_formula_sum   'K2 Pt1'
_cell_volume   92.43451874
loop_
 _symmetry_equiv_pos_site_id
 _symmetry_equiv_pos_as_xyz
  1  'x, y, z'
loop_
 _atom_type_symbol
  K
  Pt
loop_
 _atom_site_type_symbol
 _atom_site_label
 _atom_site_symmetry_multiplicity
 _atom_site_fract_x
 _atom_site_fract_y
 _atom_site_fract_z
 _atom_site_occupancy
  K  K0  1  0.34683941  0.34683941  0.00000000  1
  K  K1  1  0.65316059  0.65316059  0.00000000  1
  Pt  Pt0  1  0.00000000  0.00000000  0.00000000  1
