# generated using pymatgen
data_3723_SnTh
_symmetry_space_group_name_H-M   'P-6m2'
_cell_length_a   3.52717787
_cell_length_b   3.52716683
_cell_length_c   5.46543155
_cell_angle_alpha   90.00000000
_cell_angle_beta   90.00000000
_cell_angle_gamma   120.00010348
_chemical_formula_structural   SnTh
_chemical_formula_sum   'Sn1 Th1'
_cell_volume   58.88545031
loop_
 _symmetry_equiv_pos_site_id
 _symmetry_equiv_pos_as_xyz
  1  'x, y, z'
loop_
 _atom_type_symbol
  Sn
  Th
loop_
 _atom_site_type_symbol
 _atom_site_label
 _atom_site_symmetry_multiplicity
 _atom_site_fract_x
 _atom_site_fract_y
 _atom_site_fract_z
 _atom_site_occupancy
  Sn  Sn0  1  0.66666770  0.33333440  0.75000000  1
  Th  Th0  1  0.33333230  0.66666560  0.25000000  1
