# generated using pymatgen
data_3726_FeNi
_symmetry_space_group_name_H-M   'P-6m2'
_cell_length_a   2.50626829
_cell_length_b   2.50623967
_cell_length_c   4.07833155
_cell_angle_alpha   90.00000000
_cell_angle_beta   90.00000000
_cell_angle_gamma   120.00037766
_chemical_formula_structural   FeNi
_chemical_formula_sum   'Fe1 Ni1'
_cell_volume   22.18511411
loop_
 _symmetry_equiv_pos_site_id
 _symmetry_equiv_pos_as_xyz
  1  'x, y, z'
loop_
 _atom_type_symbol
  Fe
  Ni
loop_
 _atom_site_type_symbol
 _atom_site_label
 _atom_site_symmetry_multiplicity
 _atom_site_fract_x
 _atom_site_fract_y
 _atom_site_fract_z
 _atom_site_occupancy
  Fe  Fe0  1  0.66666710  0.33333319  0.75000000  1
  Ni  Ni0  1  0.33333290  0.66666681  0.25000000  1
