# generated using pymatgen
data_3729_Ni8Pt4
_symmetry_space_group_name_H-M   'Pnma'
_cell_length_a   2.67091773
_cell_length_b   5.20612067
_cell_length_c   10.93268272
_cell_angle_alpha   90.00000000
_cell_angle_beta   90.00000000
_cell_angle_gamma   90.00000000
_chemical_formula_structural   Ni8Pt4
_chemical_formula_sum   'Ni8 Pt4'
_cell_volume   152.02026517
loop_
 _symmetry_equiv_pos_site_id
 _symmetry_equiv_pos_as_xyz
  1  'x, y, z'
loop_
 _atom_type_symbol
  Ni
  Pt
loop_
 _atom_site_type_symbol
 _atom_site_label
 _atom_site_symmetry_multiplicity
 _atom_site_fract_x
 _atom_site_fract_y
 _atom_site_fract_z
 _atom_site_occupancy
  Ni  Ni0  1  0.00000000  0.99920244  0.00429324  1
  Ni  Ni1  1  0.50000000  0.24468699  0.16727594  1
  Ni  Ni2  1  0.00000000  0.49920244  0.32904009  1
  Ni  Ni3  1  0.50000000  0.75079756  0.50429324  1
  Ni  Ni4  1  0.00000000  0.00531301  0.66605740  1
  Ni  Ni5  1  0.50000000  0.25079756  0.82904009  1
  Ni  Ni6  1  0.50000000  0.74468699  0.16605740  1
  Ni  Ni7  1  0.00000000  0.50531301  0.66727594  1
  Pt  Pt0  1  0.00000000  0.48811038  0.00468253  1
  Pt  Pt1  1  0.00000000  0.98811038  0.32865081  1
  Pt  Pt2  1  0.50000000  0.26188962  0.50468253  1
  Pt  Pt3  1  0.50000000  0.76188962  0.82865081  1
