# generated using pymatgen
data_3732_AuSb2
_symmetry_space_group_name_H-M   'I4/mmm'
_cell_length_a   6.27598103
_cell_length_b   6.27598103
_cell_length_c   6.27598103
_cell_angle_alpha   147.18092960
_cell_angle_beta   147.18092960
_cell_angle_gamma   47.09596091
_chemical_formula_structural   AuSb2
_chemical_formula_sum   'Au1 Sb2'
_cell_volume   72.34101899
loop_
 _symmetry_equiv_pos_site_id
 _symmetry_equiv_pos_as_xyz
  1  'x, y, z'
loop_
 _atom_type_symbol
  Au
  Sb
loop_
 _atom_site_type_symbol
 _atom_site_label
 _atom_site_symmetry_multiplicity
 _atom_site_fract_x
 _atom_site_fract_y
 _atom_site_fract_z
 _atom_site_occupancy
  Au  Au0  1  0.00000000  0.00000000  0.00000000  1
  Sb  Sb0  1  0.64948033  0.64948033  0.00000000  1
  Sb  Sb1  1  0.35051967  0.35051967  0.00000000  1
