# generated using pymatgen
data_3734_GaPt2
_symmetry_space_group_name_H-M   'I4/mmm'
_cell_length_a   5.82436022
_cell_length_b   5.82436022
_cell_length_c   5.82436022
_cell_angle_alpha   151.15157449
_cell_angle_beta   151.15157449
_cell_angle_gamma   41.25359873
_chemical_formula_structural   GaPt2
_chemical_formula_sum   'Ga1 Pt2'
_cell_volume   45.89615838
loop_
 _symmetry_equiv_pos_site_id
 _symmetry_equiv_pos_as_xyz
  1  'x, y, z'
loop_
 _atom_type_symbol
  Ga
  Pt
loop_
 _atom_site_type_symbol
 _atom_site_label
 _atom_site_symmetry_multiplicity
 _atom_site_fract_x
 _atom_site_fract_y
 _atom_site_fract_z
 _atom_site_occupancy
  Ga  Ga0  1  0.50000000  0.50000000  0.00000000  1
  Pt  Pt0  1  0.84721293  0.84721293  0.00000000  1
  Pt  Pt1  1  0.15278707  0.15278707  0.00000000  1
