# generated using pymatgen
data_3736_Rh3Sb
_symmetry_space_group_name_H-M   'Imm2'
_cell_length_a   5.28729488
_cell_length_b   5.28729488
_cell_length_c   5.28729488
_cell_angle_alpha   147.50011248
_cell_angle_beta   126.46117225
_cell_angle_gamma   64.04466234
_chemical_formula_structural   Rh3Sb
_chemical_formula_sum   'Rh3 Sb1'
_cell_volume   63.17799951
loop_
 _symmetry_equiv_pos_site_id
 _symmetry_equiv_pos_as_xyz
  1  'x, y, z'
loop_
 _atom_type_symbol
  Rh
  Sb
loop_
 _atom_site_type_symbol
 _atom_site_label
 _atom_site_symmetry_multiplicity
 _atom_site_fract_x
 _atom_site_fract_y
 _atom_site_fract_z
 _atom_site_occupancy
  Rh  Rh0  1  0.75245224  0.75015452  0.00229773  1
  Rh  Rh1  1  0.25214321  0.24984548  0.00229773  1
  Rh  Rh2  1  0.16739285  0.50000000  0.66739285  1
  Sb  Sb0  1  0.66134170  1.00000000  0.66134170  1
