# generated using pymatgen
data_3742_Al3K
_symmetry_space_group_name_H-M   'P4/mmm'
_cell_length_a   3.13997620
_cell_length_b   3.13997620
_cell_length_c   9.21034272
_cell_angle_alpha   90.00000000
_cell_angle_beta   90.00000000
_cell_angle_gamma   90.00000000
_chemical_formula_structural   Al3K
_chemical_formula_sum   'Al3 K1'
_cell_volume   90.80891847
loop_
 _symmetry_equiv_pos_site_id
 _symmetry_equiv_pos_as_xyz
  1  'x, y, z'
loop_
 _atom_type_symbol
  Al
  K
loop_
 _atom_site_type_symbol
 _atom_site_label
 _atom_site_symmetry_multiplicity
 _atom_site_fract_x
 _atom_site_fract_y
 _atom_site_fract_z
 _atom_site_occupancy
  Al  Al0  1  0.50000000  0.50000000  0.69155919  1
  Al  Al1  1  0.00000000  0.00000000  0.50000000  1
  Al  Al2  1  0.50000000  0.50000000  0.30844081  1
  K  K0  1  0.00000000  0.00000000  0.00000000  1
