# generated using pymatgen
data_3743_GaMo3
_symmetry_space_group_name_H-M   'Immm'
_cell_length_a   5.18576092
_cell_length_b   5.18576092
_cell_length_c   4.38783606
_cell_angle_alpha   65.24226723
_cell_angle_beta   65.24226723
_cell_angle_gamma   36.14835459
_chemical_formula_structural   GaMo3
_chemical_formula_sum   'Ga1 Mo3'
_cell_volume   62.48699923
loop_
 _symmetry_equiv_pos_site_id
 _symmetry_equiv_pos_as_xyz
  1  'x, y, z'
loop_
 _atom_type_symbol
  Ga
  Mo
loop_
 _atom_site_type_symbol
 _atom_site_label
 _atom_site_symmetry_multiplicity
 _atom_site_fract_x
 _atom_site_fract_y
 _atom_site_fract_z
 _atom_site_occupancy
  Ga  Ga0  1  0.00000000  0.00000000  0.00000000  1
  Mo  Mo0  1  0.50000000  0.50000000  0.50000000  1
  Mo  Mo1  1  0.23993788  0.23993788  0.26003713  1
  Mo  Mo2  1  0.76006212  0.76006212  0.73996287  1
