# generated using pymatgen
data_3744_FeI
_symmetry_space_group_name_H-M   'P-6m2'
_cell_length_a   3.76105863
_cell_length_b   3.76113642
_cell_length_c   3.64493464
_cell_angle_alpha   90.00000000
_cell_angle_beta   90.00000000
_cell_angle_gamma   119.99930662
_chemical_formula_structural   FeI
_chemical_formula_sum   'Fe1 I1'
_cell_volume   44.65320137
loop_
 _symmetry_equiv_pos_site_id
 _symmetry_equiv_pos_as_xyz
  1  'x, y, z'
loop_
 _atom_type_symbol
  Fe
  I
loop_
 _atom_site_type_symbol
 _atom_site_label
 _atom_site_symmetry_multiplicity
 _atom_site_fract_x
 _atom_site_fract_y
 _atom_site_fract_z
 _atom_site_occupancy
  Fe  Fe0  1  0.66666779  0.33333388  0.74999895  1
  I  I0  1  0.33333361  0.66666743  0.24999875  1
