# generated using pymatgen
data_3746_CuIr2
_symmetry_space_group_name_H-M   'I4/mmm'
_cell_length_a   3.25284341
_cell_length_b   4.59137358
_cell_length_c   3.25284341
_cell_angle_alpha   69.25348039
_cell_angle_beta   90.00000000
_cell_angle_gamma   110.74651961
_chemical_formula_structural   CuIr2
_chemical_formula_sum   'Cu1 Ir2'
_cell_volume   42.04558054
loop_
 _symmetry_equiv_pos_site_id
 _symmetry_equiv_pos_as_xyz
  1  'x, y, z'
loop_
 _atom_type_symbol
  Cu
  Ir
loop_
 _atom_site_type_symbol
 _atom_site_label
 _atom_site_symmetry_multiplicity
 _atom_site_fract_x
 _atom_site_fract_y
 _atom_site_fract_z
 _atom_site_occupancy
  Cu  Cu0  1  0.00000000  0.00000000  0.00000000  1
  Ir  Ir0  1  0.33367515  0.66735031  0.66632485  1
  Ir  Ir1  1  0.66632485  0.33264969  0.33367515  1
