# generated using pymatgen
data_374_Al6Rh6
_symmetry_space_group_name_H-M   'Pmmm'
_cell_length_a   2.93246953
_cell_length_b   5.69490394
_cell_length_c   10.25828710
_cell_angle_alpha   90.00000000
_cell_angle_beta   90.00000000
_cell_angle_gamma   90.00000000
_chemical_formula_structural   Al6Rh6
_chemical_formula_sum   'Al6 Rh6'
_cell_volume   171.31475154
loop_
 _symmetry_equiv_pos_site_id
 _symmetry_equiv_pos_as_xyz
  1  'x, y, z'
loop_
 _atom_type_symbol
  Al
  Rh
loop_
 _atom_site_type_symbol
 _atom_site_label
 _atom_site_symmetry_multiplicity
 _atom_site_fract_x
 _atom_site_fract_y
 _atom_site_fract_z
 _atom_site_occupancy
  Al  Al0  1  0.00000000  0.00035484  0.00000000  1
  Al  Al1  1  0.50000000  0.25000000  0.20384068  1
  Al  Al2  1  0.50000000  0.75000000  0.50000000  1
  Al  Al3  1  0.50000000  0.25000000  0.79615932  1
  Al  Al4  1  0.00000000  0.49964516  0.00000000  1
  Al  Al5  1  0.50000000  0.25000000  0.50000000  1
  Rh  Rh0  1  0.00000000  0.50605751  0.34814883  1
  Rh  Rh1  1  0.00000000  0.99394249  0.65185117  1
  Rh  Rh2  1  0.50000000  0.75000000  0.14686395  1
  Rh  Rh3  1  0.00000000  0.99394249  0.34814883  1
  Rh  Rh4  1  0.00000000  0.50605751  0.65185117  1
  Rh  Rh5  1  0.50000000  0.75000000  0.85313605  1
