# generated using pymatgen
data_3750_Mn2Ge2
_symmetry_space_group_name_H-M   'Cmcm'
_cell_length_a   4.62305459
_cell_length_b   4.62305459
_cell_length_c   4.00360367
_cell_angle_alpha   90.00000000
_cell_angle_beta   90.00000000
_cell_angle_gamma   142.07853048
_chemical_formula_structural   Mn2Ge2
_chemical_formula_sum   'Ge2 Mn2'
_cell_volume   52.58817946
loop_
 _symmetry_equiv_pos_site_id
 _symmetry_equiv_pos_as_xyz
  1  'x, y, z'
loop_
 _atom_type_symbol
  Ge
  Mn
loop_
 _atom_site_type_symbol
 _atom_site_label
 _atom_site_symmetry_multiplicity
 _atom_site_fract_x
 _atom_site_fract_y
 _atom_site_fract_z
 _atom_site_occupancy
  Ge  Ge0  1  0.39845000  0.60155000  0.25000000  1
  Ge  Ge1  1  0.60155000  0.39845000  0.75000000  1
  Mn  Mn0  1  0.12628151  0.87371849  0.25000000  1
  Mn  Mn1  1  0.87371849  0.12628151  0.75000000  1
