# generated using pymatgen
data_3752_Al42Pd16
_symmetry_space_group_name_H-M   'I4_1/a'
_cell_length_a   10.69452706
_cell_length_b   10.69452706
_cell_length_c   10.69452706
_cell_angle_alpha   104.68266508
_cell_angle_beta   104.68266508
_cell_angle_gamma   119.54252678
_chemical_formula_structural   Al42Pd16
_chemical_formula_sum   'Al42 Pd16'
_cell_volume   919.44127763
loop_
 _symmetry_equiv_pos_site_id
 _symmetry_equiv_pos_as_xyz
  1  'x, y, z'
loop_
 _atom_type_symbol
  Al
  Pd
loop_
 _atom_site_type_symbol
 _atom_site_label
 _atom_site_symmetry_multiplicity
 _atom_site_fract_x
 _atom_site_fract_y
 _atom_site_fract_z
 _atom_site_occupancy
  Al  Al0  1  0.50000000  0.50000000  0.00000000  1
  Al  Al1  1  0.75000000  0.25000000  0.50000000  1
  Al  Al2  1  0.01125811  0.04658420  0.85710434  1
  Al  Al3  1  0.18947985  0.15415377  0.14289566  1
  Al  Al4  1  0.40415377  0.76125811  0.46467391  1
  Al  Al5  1  0.29658420  0.93947985  0.53532609  1
  Al  Al6  1  0.23874189  0.70341580  0.64289566  1
  Al  Al7  1  0.06052015  0.59584623  0.35710434  1
  Al  Al8  1  0.84584623  0.98874189  0.03532609  1
  Al  Al9  1  0.95341580  0.81052015  0.96467391  1
  Al  Al10  1  0.96471140  0.30341929  0.16519629  1
  Al  Al11  1  0.13822299  0.79951511  0.83480371  1
  Al  Al12  1  0.04951511  0.71471140  0.16129212  1
  Al  Al13  1  0.55341929  0.88822299  0.83870788  1
  Al  Al14  1  0.28528860  0.44658071  0.33480371  1
  Al  Al15  1  0.11177701  0.95048489  0.66519629  1
  Al  Al16  1  0.20048489  0.03528860  0.33870788  1
  Al  Al17  1  0.69658071  0.86177701  0.66129212  1
  Al  Al18  1  0.68563120  0.25762695  0.99290264  1
  Al  Al19  1  0.26472431  0.69272855  0.00709736  1
  Al  Al20  1  0.94272855  0.43563120  0.92800425  1
  Al  Al21  1  0.50762695  0.01472431  0.07199575  1
  Al  Al22  1  0.56436880  0.49237305  0.50709736  1
  Al  Al23  1  0.98527569  0.05727145  0.49290264  1
  Al  Al24  1  0.30727145  0.31436880  0.57199575  1
  Al  Al25  1  0.74237305  0.73527569  0.42800425  1
  Al  Al26  1  0.47075613  0.26219442  0.77306055  1
  Al  Al27  1  0.48913387  0.69769558  0.22693945  1
  Al  Al28  1  0.94769558  0.22075613  0.70856171  1
  Al  Al29  1  0.51219442  0.23913387  0.29143829  1
  Al  Al30  1  0.77924387  0.48780558  0.72693945  1
  Al  Al31  1  0.76086613  0.05230442  0.27306055  1
  Al  Al32  1  0.30230442  0.52924387  0.79143829  1
  Al  Al33  1  0.73780558  0.51086613  0.20856171  1
  Al  Al34  1  0.34571383  0.17992277  0.97895660  1
  Al  Al35  1  0.20096617  0.36675723  0.02104340  1
  Al  Al36  1  0.61675723  0.09571383  0.66579106  1
  Al  Al37  1  0.42992277  0.95096617  0.33420894  1
  Al  Al38  1  0.90428617  0.57007723  0.52104340  1
  Al  Al39  1  0.04903383  0.38324277  0.47895660  1
  Al  Al40  1  0.63324277  0.65428617  0.83420894  1
  Al  Al41  1  0.82007723  0.79903383  0.16579106  1
  Pd  Pd0  1  0.77483298  0.31211063  0.27638797  1
  Pd  Pd1  1  0.03572266  0.49844501  0.72361203  1
  Pd  Pd2  1  0.74844501  0.52483298  0.96272236  1
  Pd  Pd3  1  0.56211063  0.78572266  0.03727764  1
  Pd  Pd4  1  0.47516702  0.43788937  0.22361203  1
  Pd  Pd5  1  0.21427734  0.25155499  0.77638797  1
  Pd  Pd6  1  0.50155499  0.22516702  0.53727764  1
  Pd  Pd7  1  0.68788937  0.96427734  0.46272236  1
  Pd  Pd8  1  0.42078070  0.60704655  0.61414465  1
  Pd  Pd9  1  0.99290190  0.80663605  0.38585535  1
  Pd  Pd10  1  0.05663605  0.17078070  0.31373414  1
  Pd  Pd11  1  0.85704655  0.74290190  0.68626586  1
  Pd  Pd12  1  0.82921930  0.14295345  0.88585535  1
  Pd  Pd13  1  0.25709810  0.94336395  0.11414465  1
  Pd  Pd14  1  0.19336395  0.57921930  0.18626586  1
  Pd  Pd15  1  0.39295345  0.00709810  0.81373414  1
