# generated using pymatgen
data_3753_Pb3Sr
_symmetry_space_group_name_H-M   'I4/mmm'
_cell_length_a   4.99275903
_cell_length_b   6.27148703
_cell_length_c   4.99016247
_cell_angle_alpha   66.55645737
_cell_angle_beta   90.00000000
_cell_angle_gamma   113.45647153
_chemical_formula_structural   Pb3Sr
_chemical_formula_sum   'Pb3 Sr1'
_cell_volume   129.15854165
loop_
 _symmetry_equiv_pos_site_id
 _symmetry_equiv_pos_as_xyz
  1  'x, y, z'
loop_
 _atom_type_symbol
  Pb
  Sr
loop_
 _atom_site_type_symbol
 _atom_site_label
 _atom_site_symmetry_multiplicity
 _atom_site_fract_x
 _atom_site_fract_y
 _atom_site_fract_z
 _atom_site_occupancy
  Pb  Pb0  1  0.99998981  0.99997962  0.00001019  1
  Pb  Pb1  1  0.24999054  0.49998107  0.25000946  1
  Pb  Pb2  1  0.49995839  0.99991677  0.50004161  1
  Sr  Sr0  1  0.74996302  0.49992603  0.75003698  1
