# generated using pymatgen
data_3754_Al3Cu2
_symmetry_space_group_name_H-M   'P -3 m1'
_cell_length_a   4.12699976
_cell_length_b   4.12703451
_cell_length_c   5.01515822
_cell_angle_alpha   90.00000002
_cell_angle_beta   90.00045319
_cell_angle_gamma   120.00028288
_chemical_formula_structural   Al3Cu2
_chemical_formula_sum   'Al3 Cu2'
_cell_volume   73.97527301
loop_
 _symmetry_equiv_pos_site_id
 _symmetry_equiv_pos_as_xyz
  1  'x, y, z'
loop_
 _atom_type_symbol
  Al
  Cu
loop_
 _atom_site_type_symbol
 _atom_site_label
 _atom_site_symmetry_multiplicity
 _atom_site_fract_x
 _atom_site_fract_y
 _atom_site_fract_z
 _atom_site_occupancy
  Al  Al0  1  0.00000000  0.00000000  0.00000000  1
  Al  Al1  1  0.33334527  0.66667263  0.35384192  1
  Al  Al2  1  0.66665473  0.33332737  0.64615808  1
  Cu  Cu0  1  0.66665528  0.33332764  0.15623851  1
  Cu  Cu1  1  0.33334472  0.66667236  0.84376149  1
