# generated using pymatgen
data_3774_W4Sb2
_symmetry_space_group_name_H-M   'Cmcm'
_cell_length_a   7.50317521
_cell_length_b   7.50317521
_cell_length_c   4.92993692
_cell_angle_alpha   90.00000000
_cell_angle_beta   90.00000000
_cell_angle_gamma   155.42447844
_chemical_formula_structural   W4Sb2
_chemical_formula_sum   'Sb2 W4'
_cell_volume   115.42833210
loop_
 _symmetry_equiv_pos_site_id
 _symmetry_equiv_pos_as_xyz
  1  'x, y, z'
loop_
 _atom_type_symbol
  Sb
  W
loop_
 _atom_site_type_symbol
 _atom_site_label
 _atom_site_symmetry_multiplicity
 _atom_site_fract_x
 _atom_site_fract_y
 _atom_site_fract_z
 _atom_site_occupancy
  Sb  Sb0  1  0.01803099  0.98196901  0.00000000  1
  Sb  Sb1  1  0.42641345  0.57358655  0.50000000  1
  W  W0  1  0.31818301  0.68181699  0.00000000  1
  W  W1  1  0.68018707  0.31981293  0.00000000  1
  W  W2  1  0.76425738  0.23574262  0.50000000  1
  W  W3  1  0.12626143  0.87373857  0.50000000  1
