# generated using pymatgen
data_3777_Eu3Fe
_symmetry_space_group_name_H-M   'Fm -3 m'
_cell_length_a   5.23723324
_cell_length_b   5.23723324
_cell_length_c   5.23723324
_cell_angle_alpha   60.00000000
_cell_angle_beta   60.00000000
_cell_angle_gamma   60.00000000
_chemical_formula_structural   Eu3Fe
_chemical_formula_sum   'Eu3 Fe1'
_cell_volume   101.57591648
loop_
 _symmetry_equiv_pos_site_id
 _symmetry_equiv_pos_as_xyz
  1  'x, y, z'
loop_
 _atom_type_symbol
  Eu
  Fe
loop_
 _atom_site_type_symbol
 _atom_site_label
 _atom_site_symmetry_multiplicity
 _atom_site_fract_x
 _atom_site_fract_y
 _atom_site_fract_z
 _atom_site_occupancy
  Eu  Eu0  1  0.00000000  0.00000000  0.00000000  1
  Eu  Eu1  1  0.25000000  0.25000000  0.25000000  1
  Eu  Eu2  1  0.50000000  0.50000000  0.50000000  1
  Fe  Fe0  1  0.75000000  0.75000000  0.75000000  1
