# generated using pymatgen
data_3778_InMo
_symmetry_space_group_name_H-M   'R -3 m'
_cell_length_a   5.06712199
_cell_length_b   5.06712199
_cell_length_c   5.06712171
_cell_angle_alpha   34.47606442
_cell_angle_beta   34.47606442
_cell_angle_gamma   34.47607096
_chemical_formula_structural   InMo
_chemical_formula_sum   'In1 Mo1'
_cell_volume   37.18940621
loop_
 _symmetry_equiv_pos_site_id
 _symmetry_equiv_pos_as_xyz
  1  'x, y, z'
loop_
 _atom_type_symbol
  In
  Mo
loop_
 _atom_site_type_symbol
 _atom_site_label
 _atom_site_symmetry_multiplicity
 _atom_site_fract_x
 _atom_site_fract_y
 _atom_site_fract_z
 _atom_site_occupancy
  In  In0  1  0.00000000  0.00000000  0.00000000  1
  Mo  Mo0  1  0.50000000  0.50000000  0.50000000  1
