# generated using pymatgen
data_3781_Nb6V10
_symmetry_space_group_name_H-M   'I4/mcm'
_cell_length_a   7.45494599
_cell_length_b   7.45492221
_cell_length_c   7.45449609
_cell_angle_alpha   96.85377372
_cell_angle_beta   96.85587620
_cell_angle_gamma   139.57957122
_chemical_formula_structural   Nb6V10
_chemical_formula_sum   'Nb6 V10'
_cell_volume   252.08205411
loop_
 _symmetry_equiv_pos_site_id
 _symmetry_equiv_pos_as_xyz
  1  'x, y, z'
loop_
 _atom_type_symbol
  Nb
  V
loop_
 _atom_site_type_symbol
 _atom_site_label
 _atom_site_symmetry_multiplicity
 _atom_site_fract_x
 _atom_site_fract_y
 _atom_site_fract_z
 _atom_site_occupancy
  Nb  Nb0  1  0.75023008  0.74938210  0.00000892  1
  Nb  Nb1  1  0.25021974  0.24937173  0.99998831  1
  Nb  Nb2  1  0.31887545  0.18115216  0.50000195  1
  Nb  Nb3  1  0.68025503  0.81979626  0.50000573  1
  Nb  Nb4  1  0.17978781  0.68070677  0.86138252  1
  Nb  Nb5  1  0.81840250  0.31931831  0.13860924  1
  V  V0  1  0.24954424  0.75005213  0.50000189  1
  V  V1  1  0.74953171  0.25004324  0.50000104  1
  V  V2  1  0.74862396  0.06664312  0.81601310  1
  V  V3  1  0.25089052  0.93330725  0.18494385  1
  V  V4  1  0.75092533  0.56715566  0.31817647  1
  V  V5  1  0.24866235  0.43384302  0.68258602  1
  V  V6  1  0.56594631  0.24836169  0.81505404  1
  V  V7  1  0.43261151  0.75062900  0.18398566  1
  V  V8  1  0.06607557  0.25125715  0.31741328  1
  V  V9  1  0.93275123  0.74898043  0.68182798  1
