# generated using pymatgen
data_3784_CuW2
_symmetry_space_group_name_H-M   'Immm'
_cell_length_a   7.47888937
_cell_length_b   4.73033920
_cell_length_c   2.60571985
_cell_angle_alpha   90.00000000
_cell_angle_beta   90.00000000
_cell_angle_gamma   90.00000000
_chemical_formula_structural   CuW2
_chemical_formula_sum   'Cu2 W4'
_cell_volume   92.18433230
loop_
 _symmetry_equiv_pos_site_id
 _symmetry_equiv_pos_as_xyz
  1  'x, y, z'
loop_
 _atom_type_symbol
  Cu
  W
loop_
 _atom_site_type_symbol
 _atom_site_label
 _atom_site_symmetry_multiplicity
 _atom_site_fract_x
 _atom_site_fract_y
 _atom_site_fract_z
 _atom_site_occupancy
  Cu  Cu0  1  0.00000000  0.00000000  0.00000000  1
  Cu  Cu1  1  0.50000000  0.50000000  0.50000000  1
  W  W0  1  0.17729557  0.50049656  0.00000000  1
  W  W1  1  0.82270443  0.49950344  0.00000000  1
  W  W2  1  0.67729557  0.99950344  0.50000000  1
  W  W3  1  0.32270443  0.00049656  0.50000000  1
