# generated using pymatgen
data_3788_Cu12Pb12
_symmetry_space_group_name_H-M   'Pbcm'
_cell_length_a   6.31710317
_cell_length_b   8.51068265
_cell_length_c   9.56764525
_cell_angle_alpha   90.00000000
_cell_angle_beta   90.00000000
_cell_angle_gamma   90.00000000
_chemical_formula_structural   Cu12Pb12
_chemical_formula_sum   'Cu12 Pb12'
_cell_volume   514.38397543
loop_
 _symmetry_equiv_pos_site_id
 _symmetry_equiv_pos_as_xyz
  1  'x, y, z'
loop_
 _atom_type_symbol
  Cu
  Pb
loop_
 _atom_site_type_symbol
 _atom_site_label
 _atom_site_symmetry_multiplicity
 _atom_site_fract_x
 _atom_site_fract_y
 _atom_site_fract_z
 _atom_site_occupancy
  Cu  Cu0  1  0.25000000  0.14334568  0.13841734  1
  Cu  Cu1  1  0.75000000  0.85665432  0.86158266  1
  Cu  Cu2  1  0.25000000  0.64334568  0.86158266  1
  Cu  Cu3  1  0.75000000  0.35665432  0.13841734  1
  Cu  Cu4  1  0.25000000  0.54147817  0.42690919  1
  Cu  Cu5  1  0.75000000  0.45852183  0.57309081  1
  Cu  Cu6  1  0.25000000  0.04147817  0.57309081  1
  Cu  Cu7  1  0.75000000  0.95852183  0.42690919  1
  Cu  Cu8  1  0.00000000  0.75000000  0.04123337  1
  Cu  Cu9  1  0.50000000  0.25000000  0.95876663  1
  Cu  Cu10  1  0.00000000  0.25000000  0.95876663  1
  Cu  Cu11  1  0.50000000  0.75000000  0.04123337  1
  Pb  Pb0  1  0.25000000  0.48075237  0.12468249  1
  Pb  Pb1  1  0.75000000  0.51924763  0.87531751  1
  Pb  Pb2  1  0.25000000  0.98075237  0.87531751  1
  Pb  Pb3  1  0.75000000  0.01924763  0.12468249  1
  Pb  Pb4  1  0.25000000  0.85930056  0.29052654  1
  Pb  Pb5  1  0.75000000  0.14069944  0.70947346  1
  Pb  Pb6  1  0.25000000  0.35930056  0.70947346  1
  Pb  Pb7  1  0.75000000  0.64069944  0.29052654  1
  Pb  Pb8  1  0.00000000  0.75000000  0.61009275  1
  Pb  Pb9  1  0.50000000  0.25000000  0.38990725  1
  Pb  Pb10  1  0.00000000  0.25000000  0.38990725  1
  Pb  Pb11  1  0.50000000  0.75000000  0.61009275  1
