# generated using pymatgen
data_3798_Ga4Sr
_symmetry_space_group_name_H-M   'I4/mmm'
_cell_length_a   4.48868795
_cell_length_b   4.48868795
_cell_length_c   6.24680029
_cell_angle_alpha   111.05592168
_cell_angle_beta   111.05592168
_cell_angle_gamma   90.00000000
_chemical_formula_structural   Ga4Sr
_chemical_formula_sum   'Ga4 Sr1'
_cell_volume   108.40536288
loop_
 _symmetry_equiv_pos_site_id
 _symmetry_equiv_pos_as_xyz
  1  'x, y, z'
loop_
 _atom_type_symbol
  Ga
  Sr
loop_
 _atom_site_type_symbol
 _atom_site_label
 _atom_site_symmetry_multiplicity
 _atom_site_fract_x
 _atom_site_fract_y
 _atom_site_fract_z
 _atom_site_occupancy
  Ga  Ga0  1  0.61904515  0.61904515  0.23809030  1
  Ga  Ga1  1  0.75000000  0.25000000  0.50000000  1
  Ga  Ga2  1  0.25000000  0.75000000  0.50000000  1
  Ga  Ga3  1  0.38095485  0.38095485  0.76190970  1
  Sr  Sr0  1  0.00000000  0.00000000  0.00000000  1
