# generated using pymatgen
data_3801_Na4P2
_symmetry_space_group_name_H-M   'I4/mcm'
_cell_length_a   5.73792030
_cell_length_b   5.73792030
_cell_length_c   5.73792030
_cell_angle_alpha   106.58855692
_cell_angle_beta   106.58855692
_cell_angle_gamma   115.40449923
_chemical_formula_structural   Na4P2
_chemical_formula_sum   'Na4 P2'
_cell_volume   144.24419868
loop_
 _symmetry_equiv_pos_site_id
 _symmetry_equiv_pos_as_xyz
  1  'x, y, z'
loop_
 _atom_type_symbol
  Na
  P
loop_
 _atom_site_type_symbol
 _atom_site_label
 _atom_site_symmetry_multiplicity
 _atom_site_fract_x
 _atom_site_fract_y
 _atom_site_fract_z
 _atom_site_occupancy
  Na  Na0  1  0.29820927  0.20179073  0.50000000  1
  Na  Na1  1  0.70179073  0.79820927  0.50000000  1
  Na  Na2  1  0.20179073  0.70179073  0.90358146  1
  Na  Na3  1  0.79820927  0.29820927  0.09641854  1
  P  P0  1  0.75000000  0.75000000  0.00000000  1
  P  P1  1  0.25000000  0.25000000  0.00000000  1
