# generated using pymatgen
data_3806_Ag4Pd6
_symmetry_space_group_name_H-M   'Fdd2'
_cell_length_a   5.41574292
_cell_length_b   5.41574292
_cell_length_c   7.32308901
_cell_angle_alpha   80.94745531
_cell_angle_beta   80.94745531
_cell_angle_gamma   125.06418798
_chemical_formula_structural   Ag4Pd6
_chemical_formula_sum   'Ag4 Pd6'
_cell_volume   165.26144124
loop_
 _symmetry_equiv_pos_site_id
 _symmetry_equiv_pos_as_xyz
  1  'x, y, z'
loop_
 _atom_type_symbol
  Ag
  Pd
loop_
 _atom_site_type_symbol
 _atom_site_label
 _atom_site_symmetry_multiplicity
 _atom_site_fract_x
 _atom_site_fract_y
 _atom_site_fract_z
 _atom_site_occupancy
  Ag  Ag0  1  0.64676960  0.18876787  0.90214598  1
  Ag  Ag1  1  0.09091386  0.54891559  0.09785402  1
  Ag  Ag2  1  0.29891559  0.34091386  0.59785402  1
  Ag  Ag3  1  0.93876787  0.89676960  0.40214598  1
  Pd  Pd0  1  0.65990475  0.72423507  0.80404906  1
  Pd  Pd1  1  0.52828413  0.46395381  0.19595094  1
  Pd  Pd2  1  0.21395381  0.77828413  0.69595094  1
  Pd  Pd3  1  0.47423507  0.90990475  0.30404906  1
  Pd  Pd4  1  0.07412766  0.07412766  0.00000000  1
  Pd  Pd5  1  0.82412766  0.32412766  0.50000000  1
