# generated using pymatgen
data_380_MoTa2
_symmetry_space_group_name_H-M   'I4/mmm'
_cell_length_a   5.44471262
_cell_length_b   5.44471262
_cell_length_c   4.58650924
_cell_angle_alpha   90.00000000
_cell_angle_beta   90.00000000
_cell_angle_gamma   130.03427751
_chemical_formula_structural   MoTa2
_chemical_formula_sum   'Mo2 Ta4'
_cell_volume   104.10414391
loop_
 _symmetry_equiv_pos_site_id
 _symmetry_equiv_pos_as_xyz
  1  'x, y, z'
loop_
 _atom_type_symbol
  Mo
  Ta
loop_
 _atom_site_type_symbol
 _atom_site_label
 _atom_site_symmetry_multiplicity
 _atom_site_fract_x
 _atom_site_fract_y
 _atom_site_fract_z
 _atom_site_occupancy
  Mo  Mo0  1  0.24997845  0.24997845  0.25000000  1
  Mo  Mo1  1  0.75002155  0.75002155  0.75000000  1
  Ta  Ta0  1  0.58893180  0.90884955  0.25000000  1
  Ta  Ta1  1  0.41106820  0.09115045  0.75000000  1
  Ta  Ta2  1  0.90884955  0.58893180  0.25000000  1
  Ta  Ta3  1  0.09115045  0.41106820  0.75000000  1
