# generated using pymatgen
data_3814_W2Sb6
_symmetry_space_group_name_H-M   'Pmmn'
_cell_length_a   4.92785185
_cell_length_b   5.28866641
_cell_length_c   6.88701048
_cell_angle_alpha   90.00000000
_cell_angle_beta   90.00000000
_cell_angle_gamma   90.00000000
_chemical_formula_structural   W2Sb6
_chemical_formula_sum   'Sb6 W2'
_cell_volume   179.48764560
loop_
 _symmetry_equiv_pos_site_id
 _symmetry_equiv_pos_as_xyz
  1  'x, y, z'
loop_
 _atom_type_symbol
  Sb
  W
loop_
 _atom_site_type_symbol
 _atom_site_label
 _atom_site_symmetry_multiplicity
 _atom_site_fract_x
 _atom_site_fract_y
 _atom_site_fract_z
 _atom_site_occupancy
  Sb  Sb0  1  0.50000000  0.64087321  0.00000000  1
  Sb  Sb1  1  0.00000000  0.35912679  0.50000000  1
  Sb  Sb2  1  0.00000000  0.80728476  0.25183956  1
  Sb  Sb3  1  0.00000000  0.80728476  0.74816044  1
  Sb  Sb4  1  0.50000000  0.19271524  0.75183956  1
  Sb  Sb5  1  0.50000000  0.19271524  0.24816044  1
  W  W0  1  0.00000000  0.29822288  0.00000000  1
  W  W1  1  0.50000000  0.70177712  0.50000000  1
