# generated using pymatgen
data_381_Sb4Ge2
_symmetry_space_group_name_H-M   'Cmcm'
_cell_length_a   8.29722787
_cell_length_b   8.29722787
_cell_length_c   4.92909031
_cell_angle_alpha   90.00000000
_cell_angle_beta   90.00000000
_cell_angle_gamma   153.31382154
_chemical_formula_structural   Sb4Ge2
_chemical_formula_sum   'Ge2 Sb4'
_cell_volume   152.39798574
loop_
 _symmetry_equiv_pos_site_id
 _symmetry_equiv_pos_as_xyz
  1  'x, y, z'
loop_
 _atom_type_symbol
  Ge
  Sb
loop_
 _atom_site_type_symbol
 _atom_site_label
 _atom_site_symmetry_multiplicity
 _atom_site_fract_x
 _atom_site_fract_y
 _atom_site_fract_z
 _atom_site_occupancy
  Ge  Ge0  1  0.08900991  0.91099009  0.25000000  1
  Ge  Ge1  1  0.91099009  0.08900991  0.75000000  1
  Sb  Sb0  1  0.43599422  0.56400578  0.25000000  1
  Sb  Sb1  1  0.56400578  0.43599422  0.75000000  1
  Sb  Sb2  1  0.72706476  0.27293524  0.25000000  1
  Sb  Sb3  1  0.27293524  0.72706476  0.75000000  1
