# generated using pymatgen
data_3823_Ga2Pd2
_symmetry_space_group_name_H-M   'Imma'
_cell_length_a   5.16970005
_cell_length_b   5.16970005
_cell_length_c   5.16970005
_cell_angle_alpha   139.25966973
_cell_angle_beta   136.89478615
_cell_angle_gamma   60.80554115
_chemical_formula_structural   Ga2Pd2
_chemical_formula_sum   'Ga2 Pd2'
_cell_volume   60.95088946
loop_
 _symmetry_equiv_pos_site_id
 _symmetry_equiv_pos_as_xyz
  1  'x, y, z'
loop_
 _atom_type_symbol
  Ga
  Pd
loop_
 _atom_site_type_symbol
 _atom_site_label
 _atom_site_symmetry_multiplicity
 _atom_site_fract_x
 _atom_site_fract_y
 _atom_site_fract_z
 _atom_site_occupancy
  Ga  Ga0  1  0.37307654  0.62307654  0.25000000  1
  Ga  Ga1  1  0.62692346  0.37692346  0.75000000  1
  Pd  Pd0  1  0.87300152  0.12300152  0.25000000  1
  Pd  Pd1  1  0.12699848  0.87699848  0.75000000  1
