# generated using pymatgen
data_3825_Ag2Nb4
_symmetry_space_group_name_H-M   'Cmcm'
_cell_length_a   2.68392982
_cell_length_b   8.38935921
_cell_length_c   4.88921995
_cell_angle_alpha   90.00000000
_cell_angle_beta   90.00000000
_cell_angle_gamma   80.79540468
_chemical_formula_structural   Ag2Nb4
_chemical_formula_sum   'Ag2 Nb4'
_cell_volume   108.67032976
loop_
 _symmetry_equiv_pos_site_id
 _symmetry_equiv_pos_as_xyz
  1  'x, y, z'
loop_
 _atom_type_symbol
  Ag
  Nb
loop_
 _atom_site_type_symbol
 _atom_site_label
 _atom_site_symmetry_multiplicity
 _atom_site_fract_x
 _atom_site_fract_y
 _atom_site_fract_z
 _atom_site_occupancy
  Ag  Ag0  1  0.99515896  0.00968207  0.00000000  1
  Ag  Ag1  1  0.56039659  0.87920681  0.50000000  1
  Nb  Nb0  1  0.65855815  0.68288370  0.00000000  1
  Nb  Nb1  1  0.32583030  0.34833940  0.00000000  1
  Nb  Nb2  1  0.22972525  0.54054949  0.50000000  1
  Nb  Nb3  1  0.89699741  0.20600518  0.50000000  1
