# generated using pymatgen
data_3827_Al2Pt2
_symmetry_space_group_name_H-M   'P4/nmm'
_cell_length_a   3.39256562
_cell_length_b   3.39256562
_cell_length_c   5.36855732
_cell_angle_alpha   90.00000000
_cell_angle_beta   90.00000000
_cell_angle_gamma   90.00000000
_chemical_formula_structural   Al2Pt2
_chemical_formula_sum   'Al2 Pt2'
_cell_volume   61.78941845
loop_
 _symmetry_equiv_pos_site_id
 _symmetry_equiv_pos_as_xyz
  1  'x, y, z'
loop_
 _atom_type_symbol
  Al
  Pt
loop_
 _atom_site_type_symbol
 _atom_site_label
 _atom_site_symmetry_multiplicity
 _atom_site_fract_x
 _atom_site_fract_y
 _atom_site_fract_z
 _atom_site_occupancy
  Al  Al0  1  0.00000000  0.00000000  0.97042475  1
  Al  Al1  1  0.50000000  0.50000000  0.27957525  1
  Pt  Pt0  1  0.00000000  0.00000000  0.44867382  1
  Pt  Pt1  1  0.50000000  0.50000000  0.80132618  1
