# generated using pymatgen
data_3832_CuPb3
_symmetry_space_group_name_H-M   'Immm'
_cell_length_a   6.45888156
_cell_length_b   6.45888156
_cell_length_c   5.49833037
_cell_angle_alpha   65.04285679
_cell_angle_beta   65.04285679
_cell_angle_gamma   31.45973401
_chemical_formula_structural   CuPb3
_chemical_formula_sum   'Cu1 Pb3'
_cell_volume   107.59591298
loop_
 _symmetry_equiv_pos_site_id
 _symmetry_equiv_pos_as_xyz
  1  'x, y, z'
loop_
 _atom_type_symbol
  Cu
  Pb
loop_
 _atom_site_type_symbol
 _atom_site_label
 _atom_site_symmetry_multiplicity
 _atom_site_fract_x
 _atom_site_fract_y
 _atom_site_fract_z
 _atom_site_occupancy
  Cu  Cu0  1  0.00000000  0.00000000  0.00000000  1
  Pb  Pb0  1  0.50000000  0.50000000  0.50000000  1
  Pb  Pb1  1  0.29825756  0.29825756  0.20169443  1
  Pb  Pb2  1  0.70174244  0.70174244  0.79830557  1
