# generated using pymatgen
data_3835_Fe2Br2
_symmetry_space_group_name_H-M   'Pmma'
_cell_length_a   3.50318065
_cell_length_b   3.26305101
_cell_length_c   7.31535339
_cell_angle_alpha   90.00000000
_cell_angle_beta   90.00000000
_cell_angle_gamma   90.00000000
_chemical_formula_structural   Fe2Br2
_chemical_formula_sum   'Br2 Fe2'
_cell_volume   83.62222273
loop_
 _symmetry_equiv_pos_site_id
 _symmetry_equiv_pos_as_xyz
  1  'x, y, z'
loop_
 _atom_type_symbol
  Br
  Fe
loop_
 _atom_site_type_symbol
 _atom_site_label
 _atom_site_symmetry_multiplicity
 _atom_site_fract_x
 _atom_site_fract_y
 _atom_site_fract_z
 _atom_site_occupancy
  Br  Br0  1  0.00000000  0.00000000  0.91663657  1
  Br  Br1  1  0.00000000  0.50000000  0.41669676  1
  Fe  Fe0  1  0.50000000  0.00000000  0.57291795  1
  Fe  Fe1  1  0.50000000  0.50000000  0.76041538  1
