# generated using pymatgen
data_3836_Ac4Br6
_symmetry_space_group_name_H-M   'R -3 c'
_cell_length_a   7.42091551
_cell_length_b   7.42091594
_cell_length_c   8.92916992
_cell_angle_alpha   114.55354306
_cell_angle_beta   65.44645743
_cell_angle_gamma   119.99999811
_chemical_formula_structural   Ac4Br6
_chemical_formula_sum   'Ac4 Br6'
_cell_volume   373.62486815
loop_
 _symmetry_equiv_pos_site_id
 _symmetry_equiv_pos_as_xyz
  1  'x, y, z'
loop_
 _atom_type_symbol
  Ac
  Br
loop_
 _atom_site_type_symbol
 _atom_site_label
 _atom_site_symmetry_multiplicity
 _atom_site_fract_x
 _atom_site_fract_y
 _atom_site_fract_z
 _atom_site_occupancy
  Ac  Ac0  1  0.66631493  0.33368507  0.00105521  1
  Ac  Ac1  1  0.83368507  0.16631493  0.49894479  1
  Ac  Ac2  1  0.16631493  0.83368507  0.50105521  1
  Ac  Ac3  1  0.33368507  0.66631493  0.99894479  1
  Br  Br0  1  0.25000000  0.08553588  0.25000000  1
  Br  Br1  1  0.91446412  0.41446412  0.25000000  1
  Br  Br2  1  0.58553588  0.75000000  0.25000000  1
  Br  Br3  1  0.41446412  0.25000000  0.75000000  1
  Br  Br4  1  0.08553588  0.58553588  0.75000000  1
  Br  Br5  1  0.75000000  0.91446412  0.75000000  1
