# generated using pymatgen
data_3843_Ir4Ta6
_symmetry_space_group_name_H-M   'Fdd2'
_cell_length_a   5.50509064
_cell_length_b   5.50509064
_cell_length_c   7.23402385
_cell_angle_alpha   80.48232867
_cell_angle_beta   80.48232867
_cell_angle_gamma   124.43253060
_chemical_formula_structural   Ir4Ta6
_chemical_formula_sum   'Ir4 Ta6'
_cell_volume   169.06391499
loop_
 _symmetry_equiv_pos_site_id
 _symmetry_equiv_pos_as_xyz
  1  'x, y, z'
loop_
 _atom_type_symbol
  Ir
  Ta
loop_
 _atom_site_type_symbol
 _atom_site_label
 _atom_site_symmetry_multiplicity
 _atom_site_fract_x
 _atom_site_fract_y
 _atom_site_fract_z
 _atom_site_occupancy
  Ir  Ir0  1  0.64693413  0.20650931  0.89664763  1
  Ir  Ir1  1  0.10315694  0.54358176  0.10335237  1
  Ir  Ir2  1  0.29358176  0.35315694  0.60335237  1
  Ir  Ir3  1  0.95650931  0.89693413  0.39664763  1
  Ta  Ta0  1  0.62653598  0.75022841  0.78998538  1
  Ta  Ta1  1  0.54021379  0.41652136  0.21001462  1
  Ta  Ta2  1  0.16652136  0.79021379  0.71001462  1
  Ta  Ta3  1  0.50022841  0.87653598  0.28998538  1
  Ta  Ta4  1  0.08315916  0.08315916  0.00000000  1
  Ta  Ta5  1  0.83315916  0.33315916  0.50000000  1
