# generated using pymatgen
data_3846_CsP
_symmetry_space_group_name_H-M   'P-6m2'
_cell_length_a   3.64684385
_cell_length_b   3.64674068
_cell_length_c   5.80221018
_cell_angle_alpha   90.00000000
_cell_angle_beta   90.00000000
_cell_angle_gamma   120.00093598
_chemical_formula_structural   CsP
_chemical_formula_sum   'Cs1 P1'
_cell_volume   66.82547304
loop_
 _symmetry_equiv_pos_site_id
 _symmetry_equiv_pos_as_xyz
  1  'x, y, z'
loop_
 _atom_type_symbol
  Cs
  P
loop_
 _atom_site_type_symbol
 _atom_site_label
 _atom_site_symmetry_multiplicity
 _atom_site_fract_x
 _atom_site_fract_y
 _atom_site_fract_z
 _atom_site_occupancy
  Cs  Cs0  1  0.66666582  0.33333048  0.74999956  1
  P  P0  1  0.33333384  0.66666768  0.24999985  1
