# generated using pymatgen
data_3847_W4Sb2
_symmetry_space_group_name_H-M   'Pnnm'
_cell_length_a   4.47968012
_cell_length_b   2.95958320
_cell_length_c   8.05662286
_cell_angle_alpha   90.00000000
_cell_angle_beta   90.00000000
_cell_angle_gamma   90.00000000
_chemical_formula_structural   W4Sb2
_chemical_formula_sum   'Sb2 W4'
_cell_volume   106.81459328
loop_
 _symmetry_equiv_pos_site_id
 _symmetry_equiv_pos_as_xyz
  1  'x, y, z'
loop_
 _atom_type_symbol
  Sb
  W
loop_
 _atom_site_type_symbol
 _atom_site_label
 _atom_site_symmetry_multiplicity
 _atom_site_fract_x
 _atom_site_fract_y
 _atom_site_fract_z
 _atom_site_occupancy
  Sb  Sb0  1  0.00000000  0.00000000  0.00000000  1
  Sb  Sb1  1  0.50000000  0.50000000  0.50000000  1
  W  W0  1  0.00000000  0.12173055  0.66250855  1
  W  W1  1  0.00000000  0.87826945  0.33749145  1
  W  W2  1  0.50000000  0.62173055  0.83749145  1
  W  W3  1  0.50000000  0.37826945  0.16250855  1
