# generated using pymatgen
data_3849_SnSb
_symmetry_space_group_name_H-M   'F-43m'
_cell_length_a   4.82661355
_cell_length_b   4.82661355
_cell_length_c   4.82661355
_cell_angle_alpha   120.00000000
_cell_angle_beta   90.00000000
_cell_angle_gamma   120.00000000
_chemical_formula_structural   SnSb
_chemical_formula_sum   'Sb1 Sn1'
_cell_volume   79.50832146
loop_
 _symmetry_equiv_pos_site_id
 _symmetry_equiv_pos_as_xyz
  1  'x, y, z'
loop_
 _atom_type_symbol
  Sb
  Sn
loop_
 _atom_site_type_symbol
 _atom_site_label
 _atom_site_symmetry_multiplicity
 _atom_site_fract_x
 _atom_site_fract_y
 _atom_site_fract_z
 _atom_site_occupancy
  Sb  Sb0  1  0.75000144  0.50000096  0.25000048  1
  Sn  Sn0  1  0.00000000  0.00000000  0.00000000  1
