# generated using pymatgen
data_3851_P12Br12
_symmetry_space_group_name_H-M   'Pbcm'
_cell_length_a   6.52792277
_cell_length_b   10.29129273
_cell_length_c   12.70581538
_cell_angle_alpha   90.00000000
_cell_angle_beta   90.00000000
_cell_angle_gamma   90.00000000
_chemical_formula_structural   P12Br12
_chemical_formula_sum   'Br12 P12'
_cell_volume   853.58638631
loop_
 _symmetry_equiv_pos_site_id
 _symmetry_equiv_pos_as_xyz
  1  'x, y, z'
loop_
 _atom_type_symbol
  Br
  P
loop_
 _atom_site_type_symbol
 _atom_site_label
 _atom_site_symmetry_multiplicity
 _atom_site_fract_x
 _atom_site_fract_y
 _atom_site_fract_z
 _atom_site_occupancy
  Br  Br0  1  0.25000000  0.07775671  0.17956255  1
  Br  Br1  1  0.75000000  0.92224329  0.82043745  1
  Br  Br2  1  0.25000000  0.57775671  0.82043745  1
  Br  Br3  1  0.75000000  0.42224329  0.17956255  1
  Br  Br4  1  0.25000000  0.52550406  0.39766442  1
  Br  Br5  1  0.75000000  0.47449594  0.60233558  1
  Br  Br6  1  0.25000000  0.02550406  0.60233558  1
  Br  Br7  1  0.75000000  0.97449594  0.39766442  1
  Br  Br8  1  0.00000000  0.75000000  0.02958018  1
  Br  Br9  1  0.50000000  0.25000000  0.97041982  1
  Br  Br10  1  0.00000000  0.25000000  0.97041982  1
  Br  Br11  1  0.50000000  0.75000000  0.02958018  1
  P  P0  1  0.25000000  0.57085573  0.99242230  1
  P  P1  1  0.75000000  0.42914427  0.00757770  1
  P  P2  1  0.25000000  0.07085573  0.00757770  1
  P  P3  1  0.75000000  0.92914427  0.99242230  1
  P  P4  1  0.25000000  0.74279755  0.45866915  1
  P  P5  1  0.75000000  0.25720245  0.54133085  1
  P  P6  1  0.25000000  0.24279755  0.54133085  1
  P  P7  1  0.75000000  0.75720245  0.45866915  1
  P  P8  1  0.00000000  0.75000000  0.57195949  1
  P  P9  1  0.50000000  0.25000000  0.42804051  1
  P  P10  1  0.00000000  0.25000000  0.42804051  1
  P  P11  1  0.50000000  0.75000000  0.57195949  1
