# generated using pymatgen
data_3852_Ag4Mo
_symmetry_space_group_name_H-M   'I4/m'
_cell_length_a   6.56912090
_cell_length_b   6.56912090
_cell_length_c   5.07545444
_cell_angle_alpha   49.67322743
_cell_angle_beta   49.67322743
_cell_angle_gamma   90.00000000
_chemical_formula_structural   Ag4Mo
_chemical_formula_sum   'Ag4 Mo1'
_cell_volume   88.26482647
loop_
 _symmetry_equiv_pos_site_id
 _symmetry_equiv_pos_as_xyz
  1  'x, y, z'
loop_
 _atom_type_symbol
  Ag
  Mo
loop_
 _atom_site_type_symbol
 _atom_site_label
 _atom_site_symmetry_multiplicity
 _atom_site_fract_x
 _atom_site_fract_y
 _atom_site_fract_z
 _atom_site_occupancy
  Ag  Ag0  1  0.79738951  0.60155554  0.00000000  1
  Ag  Ag1  1  0.20261049  0.39844446  0.00000000  1
  Ag  Ag2  1  0.60155554  0.20261049  0.00000000  1
  Ag  Ag3  1  0.39844446  0.79738951  0.00000000  1
  Mo  Mo0  1  0.00000000  0.00000000  0.00000000  1
