# generated using pymatgen
data_3862_InP
_symmetry_space_group_name_H-M   'R -3 m'
_cell_length_a   3.96263171
_cell_length_b   3.96263171
_cell_length_c   3.96263082
_cell_angle_alpha   56.16216024
_cell_angle_beta   56.16216024
_cell_angle_gamma   56.16218532
_chemical_formula_structural   InP
_chemical_formula_sum   'In1 P1'
_cell_volume   40.08925356
loop_
 _symmetry_equiv_pos_site_id
 _symmetry_equiv_pos_as_xyz
  1  'x, y, z'
loop_
 _atom_type_symbol
  In
  P
loop_
 _atom_site_type_symbol
 _atom_site_label
 _atom_site_symmetry_multiplicity
 _atom_site_fract_x
 _atom_site_fract_y
 _atom_site_fract_z
 _atom_site_occupancy
  In  In0  1  0.00000000  0.00000000  0.00000000  1
  P  P0  1  0.50000059  0.50000059  0.50000059  1
