# generated using pymatgen
data_3863_BaBr2
_symmetry_space_group_name_H-M   'Fmmm'
_cell_length_a   6.82638202
_cell_length_b   6.51660779
_cell_length_c   2.68129451
_cell_angle_alpha   84.98306280
_cell_angle_beta   71.98281078
_cell_angle_gamma   23.03412642
_chemical_formula_structural   BaBr2
_chemical_formula_sum   'Ba1 Br2'
_cell_volume   37.63715815
loop_
 _symmetry_equiv_pos_site_id
 _symmetry_equiv_pos_as_xyz
  1  'x, y, z'
loop_
 _atom_type_symbol
  Ba
  Br
loop_
 _atom_site_type_symbol
 _atom_site_label
 _atom_site_symmetry_multiplicity
 _atom_site_fract_x
 _atom_site_fract_y
 _atom_site_fract_z
 _atom_site_occupancy
  Ba  Ba0  1  0.50000000  0.50000000  0.50000000  1
  Br  Br0  1  0.82766781  0.82766781  0.17233219  1
  Br  Br1  1  0.17233219  0.17233219  0.82766781  1
