# generated using pymatgen
data_3865_CrU
_symmetry_space_group_name_H-M   'R -3 m'
_cell_length_a   5.10778961
_cell_length_b   5.10778961
_cell_length_c   5.10778929
_cell_angle_alpha   32.60242108
_cell_angle_beta   32.60242108
_cell_angle_gamma   32.60241927
_chemical_formula_structural   CrU
_chemical_formula_sum   'Cr1 U1'
_cell_volume   34.40600720
loop_
 _symmetry_equiv_pos_site_id
 _symmetry_equiv_pos_as_xyz
  1  'x, y, z'
loop_
 _atom_type_symbol
  Cr
  U
loop_
 _atom_site_type_symbol
 _atom_site_label
 _atom_site_symmetry_multiplicity
 _atom_site_fract_x
 _atom_site_fract_y
 _atom_site_fract_z
 _atom_site_occupancy
  Cr  Cr0  1  0.00000000  0.00000000  0.00000000  1
  U  U0  1  0.49999956  0.49999956  0.50000016  1
