# generated using pymatgen
data_3868_Au16Yb20
_symmetry_space_group_name_H-M   'Pnma'
_cell_length_a   7.71397800
_cell_length_b   14.91205400
_cell_length_c   7.85386700
_cell_angle_alpha   90.00000000
_cell_angle_beta   90.00000000
_cell_angle_gamma   90.00000000
_chemical_formula_structural   Au16Yb20
_chemical_formula_sum   'Au16 Yb20'
_cell_volume   903.44018932
loop_
 _symmetry_equiv_pos_site_id
 _symmetry_equiv_pos_as_xyz
  1  'x, y, z'
loop_
 _atom_type_symbol
  Au
  Yb
loop_
 _atom_site_type_symbol
 _atom_site_label
 _atom_site_symmetry_multiplicity
 _atom_site_fract_x
 _atom_site_fract_y
 _atom_site_fract_z
 _atom_site_occupancy
  Au  Au0  1  0.31293323  0.04253874  0.03186583  1
  Au  Au1  1  0.31293323  0.45746148  0.03186583  1
  Au  Au2  1  0.94898768  0.24999977  0.11914003  1
  Au  Au3  1  0.31789824  0.74999999  0.14071284  1
  Au  Au4  1  0.81789838  0.74999999  0.35928669  1
  Au  Au5  1  0.44898755  0.24999977  0.38086077  1
  Au  Au6  1  0.81293337  0.04253874  0.46813370  1
  Au  Au7  1  0.81293337  0.45746148  0.46813370  1
  Au  Au8  1  0.18706691  0.54253896  0.53186664  1
  Au  Au9  1  0.18706691  0.95746102  0.53186664  1
  Au  Au10  1  0.55101273  0.74999999  0.61913956  1
  Au  Au11  1  0.18210190  0.24999977  0.64071237  1
  Au  Au12  1  0.68210203  0.24999977  0.85928750  1
  Au  Au13  1  0.05101259  0.74999999  0.88086031  1
  Au  Au14  1  0.68706705  0.54253896  0.96813451  1
  Au  Au15  1  0.68706705  0.95746102  0.96813451  1
  Yb  Yb0  1  0.68681296  0.74999999  0.00649871  1
  Yb  Yb1  1  0.65016520  0.12239897  0.16467938  1
  Yb  Yb2  1  0.65016520  0.37760058  0.16467938  1
  Yb  Yb3  1  0.01103970  0.59649330  0.17711402  1
  Yb  Yb4  1  0.01103970  0.90350668  0.17711402  1
  Yb  Yb5  1  0.51103984  0.59649330  0.32288551  1
  Yb  Yb6  1  0.51103984  0.90350668  0.32288551  1
  Yb  Yb7  1  0.15016507  0.12239897  0.33532143  1
  Yb  Yb8  1  0.15016507  0.37760058  0.33532143  1
  Yb  Yb9  1  0.18681283  0.74999999  0.49350082  1
  Yb  Yb10  1  0.81318745  0.24999977  0.50649951  1
  Yb  Yb11  1  0.84983391  0.62239919  0.66467891  1
  Yb  Yb12  1  0.84983391  0.87760079  0.66467891  1
  Yb  Yb13  1  0.48896044  0.09649375  0.67711482  1
  Yb  Yb14  1  0.48896044  0.40350647  0.67711482  1
  Yb  Yb15  1  0.98896058  0.09649375  0.82288505  1
  Yb  Yb16  1  0.98896058  0.40350647  0.82288505  1
  Yb  Yb17  1  0.34983507  0.62239919  0.83532096  1
  Yb  Yb18  1  0.34983507  0.87760079  0.83532096  1
  Yb  Yb19  1  0.31318731  0.24999977  0.99350129  1
