# generated using pymatgen
data_3878_Ag2Nb4
_symmetry_space_group_name_H-M   'Cmcm'
_cell_length_a   8.18234766
_cell_length_b   8.18234766
_cell_length_c   5.01658241
_cell_angle_alpha   90.00000000
_cell_angle_beta   90.00000000
_cell_angle_gamma   161.16599926
_chemical_formula_structural   Ag2Nb4
_chemical_formula_sum   'Ag2 Nb4'
_cell_volume   108.42619090
loop_
 _symmetry_equiv_pos_site_id
 _symmetry_equiv_pos_as_xyz
  1  'x, y, z'
loop_
 _atom_type_symbol
  Ag
  Nb
loop_
 _atom_site_type_symbol
 _atom_site_label
 _atom_site_symmetry_multiplicity
 _atom_site_fract_x
 _atom_site_fract_y
 _atom_site_fract_z
 _atom_site_occupancy
  Ag  Ag0  1  0.33150126  0.66849874  0.00000000  1
  Ag  Ag1  1  0.55738763  0.44261237  0.50000000  1
  Nb  Nb0  1  0.99850968  0.00149032  0.00000000  1
  Nb  Nb1  1  0.22288453  0.77711547  0.50000000  1
  Nb  Nb2  1  0.66600436  0.33399564  0.00000000  1
  Nb  Nb3  1  0.89037921  0.10962079  0.50000000  1
