# generated using pymatgen
data_3880_V2Ge2
_symmetry_space_group_name_H-M   'P4/nmm'
_cell_length_a   3.30609457
_cell_length_b   3.30609457
_cell_length_c   5.27865743
_cell_angle_alpha   90.00000000
_cell_angle_beta   90.00000000
_cell_angle_gamma   90.00000000
_chemical_formula_structural   V2Ge2
_chemical_formula_sum   'Ge2 V2'
_cell_volume   57.69710505
loop_
 _symmetry_equiv_pos_site_id
 _symmetry_equiv_pos_as_xyz
  1  'x, y, z'
loop_
 _atom_type_symbol
  Ge
  V
loop_
 _atom_site_type_symbol
 _atom_site_label
 _atom_site_symmetry_multiplicity
 _atom_site_fract_x
 _atom_site_fract_y
 _atom_site_fract_z
 _atom_site_occupancy
  Ge  Ge0  1  0.00000000  0.00000000  0.98537804  1
  Ge  Ge1  1  0.50000000  0.50000000  0.26462196  1
  V  V0  1  0.00000000  0.00000000  0.49759678  1
  V  V1  1  0.50000000  0.50000000  0.75240322  1
