# generated using pymatgen
data_3884_As18Br6
_symmetry_space_group_name_H-M   'Pmmn'
_cell_length_a   6.51456061
_cell_length_b   7.78218202
_cell_length_c   15.45658809
_cell_angle_alpha   90.00000000
_cell_angle_beta   90.00000000
_cell_angle_gamma   90.00000000
_chemical_formula_structural   As18Br6
_chemical_formula_sum   'As18 Br6'
_cell_volume   783.61031978
loop_
 _symmetry_equiv_pos_site_id
 _symmetry_equiv_pos_as_xyz
  1  'x, y, z'
loop_
 _atom_type_symbol
  As
  Br
loop_
 _atom_site_type_symbol
 _atom_site_label
 _atom_site_symmetry_multiplicity
 _atom_site_fract_x
 _atom_site_fract_y
 _atom_site_fract_z
 _atom_site_occupancy
  As  As0  1  0.22542208  0.91013888  0.37648653  1
  As  As1  1  0.22542208  0.91013888  0.12351347  1
  As  As2  1  0.57054037  0.99189654  0.75000000  1
  As  As3  1  0.42945963  0.00810346  0.25000000  1
  As  As4  1  0.77457792  0.08986112  0.87648653  1
  As  As5  1  0.77457792  0.08986112  0.62351347  1
  As  As6  1  0.18112017  0.25000000  0.25000000  1
  As  As7  1  0.49755746  0.25000000  0.95466730  1
  As  As8  1  0.49755746  0.25000000  0.54533270  1
  As  As9  1  0.22542208  0.58986112  0.37648653  1
  As  As10  1  0.22542208  0.58986112  0.12351347  1
  As  As11  1  0.57054037  0.50810346  0.75000000  1
  As  As12  1  0.42945963  0.49189654  0.25000000  1
  As  As13  1  0.77457792  0.41013888  0.87648653  1
  As  As14  1  0.77457792  0.41013888  0.62351347  1
  As  As15  1  0.81887983  0.75000000  0.75000000  1
  As  As16  1  0.50244254  0.75000000  0.45466730  1
  As  As17  1  0.50244254  0.75000000  0.04533270  1
  Br  Br0  1  0.24935561  0.25000000  0.75000000  1
  Br  Br1  1  0.70787086  0.25000000  0.41333884  1
  Br  Br2  1  0.70787086  0.25000000  0.08666116  1
  Br  Br3  1  0.75064439  0.75000000  0.25000000  1
  Br  Br4  1  0.29212914  0.75000000  0.91333884  1
  Br  Br5  1  0.29212914  0.75000000  0.58666116  1
