# generated using pymatgen
data_3899_Cu4Pd8
_symmetry_space_group_name_H-M   'I4_1/amd'
_cell_length_a   11.97928851
_cell_length_b   11.97928851
_cell_length_c   11.97928851
_cell_angle_alpha   161.52277505
_cell_angle_beta   161.52277505
_cell_angle_gamma   26.24654408
_chemical_formula_structural   Cu4Pd8
_chemical_formula_sum   'Cu4 Pd8'
_cell_volume   172.60816932
loop_
 _symmetry_equiv_pos_site_id
 _symmetry_equiv_pos_as_xyz
  1  'x, y, z'
loop_
 _atom_type_symbol
  Cu
  Pd
loop_
 _atom_site_type_symbol
 _atom_site_label
 _atom_site_symmetry_multiplicity
 _atom_site_fract_x
 _atom_site_fract_y
 _atom_site_fract_z
 _atom_site_occupancy
  Cu  Cu0  1  0.91609849  0.91609850  0.00000000  1
  Cu  Cu1  1  0.08390151  0.08390150  0.00000000  1
  Cu  Cu2  1  0.16609849  0.66609850  0.50000000  1
  Cu  Cu3  1  0.33390151  0.83390150  0.50000000  1
  Pd  Pd0  1  0.74937276  0.74937276  0.00000000  1
  Pd  Pd1  1  0.25062724  0.25062724  0.00000000  1
  Pd  Pd2  1  0.99937276  0.49937276  0.50000000  1
  Pd  Pd3  1  0.50062724  0.00062724  0.50000000  1
  Pd  Pd4  1  0.58517421  0.58517422  0.00000000  1
  Pd  Pd5  1  0.41482579  0.41482578  0.00000000  1
  Pd  Pd6  1  0.83517421  0.33517422  0.50000000  1
  Pd  Pd7  1  0.66482579  0.16482578  0.50000000  1
