# generated using pymatgen
data_38_SbP
_symmetry_space_group_name_H-M   'Fm -3 m'
_cell_length_a   3.99384418
_cell_length_b   3.99384418
_cell_length_c   3.99384431
_cell_angle_alpha   59.66678790
_cell_angle_beta   59.66678790
_cell_angle_gamma   59.66678239
_chemical_formula_structural   SbP
_chemical_formula_sum   'P1 Sb1'
_cell_volume   44.70520058
loop_
 _symmetry_equiv_pos_site_id
 _symmetry_equiv_pos_as_xyz
  1  'x, y, z'
loop_
 _atom_type_symbol
  P
  Sb
loop_
 _atom_site_type_symbol
 _atom_site_label
 _atom_site_symmetry_multiplicity
 _atom_site_fract_x
 _atom_site_fract_y
 _atom_site_fract_z
 _atom_site_occupancy
  P  P0  1  0.00000000  0.00000000  0.00000000  1
  Sb  Sb0  1  0.49999972  0.49999972  0.49999972  1
