# generated using pymatgen
data_3904_NaPt5
_symmetry_space_group_name_H-M   'Cmmm'
_cell_length_a   6.39153856
_cell_length_b   6.39153856
_cell_length_c   3.90968783
_cell_angle_alpha   90.00000000
_cell_angle_beta   90.00000000
_cell_angle_gamma   143.53272092
_chemical_formula_structural   NaPt5
_chemical_formula_sum   'Na1 Pt5'
_cell_volume   94.93035954
loop_
 _symmetry_equiv_pos_site_id
 _symmetry_equiv_pos_as_xyz
  1  'x, y, z'
loop_
 _atom_type_symbol
  Na
  Pt
loop_
 _atom_site_type_symbol
 _atom_site_label
 _atom_site_symmetry_multiplicity
 _atom_site_fract_x
 _atom_site_fract_y
 _atom_site_fract_z
 _atom_site_occupancy
  Na  Na0  1  0.97221657  0.02778343  0.00000000  1
  Pt  Pt0  1  0.80173212  0.19826788  0.50000000  1
  Pt  Pt1  1  0.63535005  0.36464995  0.00000000  1
  Pt  Pt2  1  0.47219912  0.52780088  0.50000000  1
  Pt  Pt3  1  0.30910025  0.69089975  0.00000000  1
  Pt  Pt4  1  0.14273522  0.85726478  0.50000000  1
