# generated using pymatgen
data_390_Pb6As2
_symmetry_space_group_name_H-M   'Pmmn'
_cell_length_a   6.17767704
_cell_length_b   6.36023868
_cell_length_c   7.25099267
_cell_angle_alpha   90.00000000
_cell_angle_beta   90.00000000
_cell_angle_gamma   90.00000000
_chemical_formula_structural   Pb6As2
_chemical_formula_sum   'As2 Pb6'
_cell_volume   284.90238185
loop_
 _symmetry_equiv_pos_site_id
 _symmetry_equiv_pos_as_xyz
  1  'x, y, z'
loop_
 _atom_type_symbol
  As
  Pb
loop_
 _atom_site_type_symbol
 _atom_site_label
 _atom_site_symmetry_multiplicity
 _atom_site_fract_x
 _atom_site_fract_y
 _atom_site_fract_z
 _atom_site_occupancy
  As  As0  1  0.00000000  0.34635425  0.00000000  1
  As  As1  1  0.50000000  0.65364575  0.50000000  1
  Pb  Pb0  1  0.50000000  0.65147537  0.00000000  1
  Pb  Pb1  1  0.00000000  0.34852463  0.50000000  1
  Pb  Pb2  1  0.00000000  0.84249248  0.24998620  1
  Pb  Pb3  1  0.00000000  0.84249248  0.75001380  1
  Pb  Pb4  1  0.50000000  0.15750752  0.74998620  1
  Pb  Pb5  1  0.50000000  0.15750752  0.25001380  1
