# generated using pymatgen
data_3915_Cu8Ir16
_symmetry_space_group_name_H-M   'Fd -3 m'
_cell_length_a   7.79422962
_cell_length_b   7.79422962
_cell_length_c   7.79422962
_cell_angle_alpha   60.00000000
_cell_angle_beta   60.00000000
_cell_angle_gamma   60.00000000
_chemical_formula_structural   Cu8Ir16
_chemical_formula_sum   'Cu8 Ir16'
_cell_volume   334.81475656
loop_
 _symmetry_equiv_pos_site_id
 _symmetry_equiv_pos_as_xyz
  1  'x, y, z'
loop_
 _atom_type_symbol
  Cu
  Ir
loop_
 _atom_site_type_symbol
 _atom_site_label
 _atom_site_symmetry_multiplicity
 _atom_site_fract_x
 _atom_site_fract_y
 _atom_site_fract_z
 _atom_site_occupancy
  Cu  Cu0  1  0.71396007  0.85811980  0.71396007  1
  Cu  Cu1  1  0.35811980  0.21396007  0.71396007  1
  Cu  Cu2  1  0.71396007  0.21396007  0.35811980  1
  Cu  Cu3  1  0.71396007  0.21396007  0.71396007  1
  Cu  Cu4  1  0.28603993  0.14188020  0.28603993  1
  Cu  Cu5  1  0.64188020  0.78603993  0.28603993  1
  Cu  Cu6  1  0.28603993  0.78603993  0.64188020  1
  Cu  Cu7  1  0.28603993  0.78603993  0.28603993  1
  Ir  Ir0  1  0.50000000  0.00000000  0.50000000  1
  Ir  Ir1  1  0.50000000  0.00000000  0.00000000  1
  Ir  Ir2  1  0.00000000  0.00000000  0.50000000  1
  Ir  Ir3  1  0.50000000  0.50000000  0.50000000  1
  Ir  Ir4  1  0.30894519  0.80894519  0.94105481  1
  Ir  Ir5  1  0.94105481  0.80894519  0.30894519  1
  Ir  Ir6  1  0.94105481  0.80894519  0.94105481  1
  Ir  Ir7  1  0.30894519  0.44105481  0.30894519  1
  Ir  Ir8  1  0.30894519  0.44105481  0.94105481  1
  Ir  Ir9  1  0.94105481  0.44105481  0.30894519  1
  Ir  Ir10  1  0.69105481  0.19105481  0.05894519  1
  Ir  Ir11  1  0.05894519  0.19105481  0.69105481  1
  Ir  Ir12  1  0.05894519  0.19105481  0.05894519  1
  Ir  Ir13  1  0.69105481  0.55894519  0.69105481  1
  Ir  Ir14  1  0.69105481  0.55894519  0.05894519  1
  Ir  Ir15  1  0.05894519  0.55894519  0.69105481  1
