# generated using pymatgen
data_3916_CeIn
_symmetry_space_group_name_H-M   'P-6m2'
_cell_length_a   3.59650719
_cell_length_b   3.59645714
_cell_length_c   5.49562680
_cell_angle_alpha   90.00000000
_cell_angle_beta   90.00000000
_cell_angle_gamma   120.00045039
_chemical_formula_structural   CeIn
_chemical_formula_sum   'Ce1 In1'
_cell_volume   61.56043998
loop_
 _symmetry_equiv_pos_site_id
 _symmetry_equiv_pos_as_xyz
  1  'x, y, z'
loop_
 _atom_type_symbol
  Ce
  In
loop_
 _atom_site_type_symbol
 _atom_site_label
 _atom_site_symmetry_multiplicity
 _atom_site_fract_x
 _atom_site_fract_y
 _atom_site_fract_z
 _atom_site_occupancy
  Ce  Ce0  1  0.66666575  0.33333051  0.75000000  1
  In  In0  1  0.33333425  0.66666949  0.25000000  1
