# generated using pymatgen
data_3917_NbV2
_symmetry_space_group_name_H-M   'I4/mmm'
_cell_length_a   3.08464503
_cell_length_b   5.21775304
_cell_length_c   3.08464503
_cell_angle_alpha   72.80700098
_cell_angle_beta   90.00000000
_cell_angle_gamma   107.19299902
_chemical_formula_structural   NbV2
_chemical_formula_sum   'Nb1 V2'
_cell_volume   45.10109435
loop_
 _symmetry_equiv_pos_site_id
 _symmetry_equiv_pos_as_xyz
  1  'x, y, z'
loop_
 _atom_type_symbol
  Nb
  V
loop_
 _atom_site_type_symbol
 _atom_site_label
 _atom_site_symmetry_multiplicity
 _atom_site_fract_x
 _atom_site_fract_y
 _atom_site_fract_z
 _atom_site_occupancy
  Nb  Nb0  1  0.00000000  0.00000000  0.00000000  1
  V  V0  1  0.32329086  0.64658173  0.67670914  1
  V  V1  1  0.67670914  0.35341827  0.32329086  1
