# generated using pymatgen
data_3920_Ag3Mo
_symmetry_space_group_name_H-M   'P4/mmm'
_cell_length_a   2.77690806
_cell_length_b   2.77690806
_cell_length_c   8.83085053
_cell_angle_alpha   90.00000000
_cell_angle_beta   90.00000000
_cell_angle_gamma   90.00000000
_chemical_formula_structural   Ag3Mo
_chemical_formula_sum   'Ag3 Mo1'
_cell_volume   68.09661687
loop_
 _symmetry_equiv_pos_site_id
 _symmetry_equiv_pos_as_xyz
  1  'x, y, z'
loop_
 _atom_type_symbol
  Ag
  Mo
loop_
 _atom_site_type_symbol
 _atom_site_label
 _atom_site_symmetry_multiplicity
 _atom_site_fract_x
 _atom_site_fract_y
 _atom_site_fract_z
 _atom_site_occupancy
  Ag  Ag0  1  0.00000000  0.00000000  0.00182383  1
  Ag  Ag1  1  0.00000000  0.00000000  0.49817617  1
  Ag  Ag2  1  0.50000000  0.50000000  0.75000000  1
  Mo  Mo0  1  0.50000000  0.50000000  0.25000000  1
