# generated using pymatgen
data_3923_Ca2Nb6
_symmetry_space_group_name_H-M   'Cmcm'
_cell_length_a   6.15282677
_cell_length_b   6.15282677
_cell_length_c   4.82397111
_cell_angle_alpha   90.00000000
_cell_angle_beta   90.00000000
_cell_angle_gamma   109.56583434
_chemical_formula_structural   Ca2Nb6
_chemical_formula_sum   'Ca2 Nb6'
_cell_volume   172.07730356
loop_
 _symmetry_equiv_pos_site_id
 _symmetry_equiv_pos_as_xyz
  1  'x, y, z'
loop_
 _atom_type_symbol
  Ca
  Nb
loop_
 _atom_site_type_symbol
 _atom_site_label
 _atom_site_symmetry_multiplicity
 _atom_site_fract_x
 _atom_site_fract_y
 _atom_site_fract_z
 _atom_site_occupancy
  Ca  Ca0  1  0.61356660  0.38643340  0.75000000  1
  Ca  Ca1  1  0.38643340  0.61356660  0.25000000  1
  Nb  Nb0  1  0.18462878  0.81537122  0.75000000  1
  Nb  Nb1  1  0.81537122  0.18462878  0.25000000  1
  Nb  Nb2  1  0.72885398  0.91841253  0.75000000  1
  Nb  Nb3  1  0.27114602  0.08158747  0.25000000  1
  Nb  Nb4  1  0.91841253  0.72885398  0.25000000  1
  Nb  Nb5  1  0.08158747  0.27114602  0.75000000  1
