# generated using pymatgen
data_3924_Al2Fe4
_symmetry_space_group_name_H-M   'I4/mcm'
_cell_length_a   4.65925035
_cell_length_b   4.65925035
_cell_length_c   4.65925035
_cell_angle_alpha   106.32447848
_cell_angle_beta   106.32447848
_cell_angle_gamma   115.96656104
_chemical_formula_structural   Al2Fe4
_chemical_formula_sum   'Al2 Fe4'
_cell_volume   77.10332790
loop_
 _symmetry_equiv_pos_site_id
 _symmetry_equiv_pos_as_xyz
  1  'x, y, z'
loop_
 _atom_type_symbol
  Al
  Fe
loop_
 _atom_site_type_symbol
 _atom_site_label
 _atom_site_symmetry_multiplicity
 _atom_site_fract_x
 _atom_site_fract_y
 _atom_site_fract_z
 _atom_site_occupancy
  Al  Al0  1  0.75000000  0.75000000  0.00000000  1
  Al  Al1  1  0.25000000  0.25000000  0.00000000  1
  Fe  Fe0  1  0.35267043  0.14732957  0.50000000  1
  Fe  Fe1  1  0.64732957  0.85267043  0.50000000  1
  Fe  Fe2  1  0.14732957  0.64732957  0.79465914  1
  Fe  Fe3  1  0.85267043  0.35267043  0.20534086  1
