# generated using pymatgen
data_3925_Na2Sn
_symmetry_space_group_name_H-M   'I4/mmm'
_cell_length_a   5.97475445
_cell_length_b   5.97475445
_cell_length_c   5.97475445
_cell_angle_alpha   141.43752479
_cell_angle_beta   141.43752479
_cell_angle_gamma   55.67698715
_chemical_formula_structural   Na2Sn
_chemical_formula_sum   'Na2 Sn1'
_cell_volume   82.25682088
loop_
 _symmetry_equiv_pos_site_id
 _symmetry_equiv_pos_as_xyz
  1  'x, y, z'
loop_
 _atom_type_symbol
  Na
  Sn
loop_
 _atom_site_type_symbol
 _atom_site_label
 _atom_site_symmetry_multiplicity
 _atom_site_fract_x
 _atom_site_fract_y
 _atom_site_fract_z
 _atom_site_occupancy
  Na  Na0  1  0.66330783  0.66330783  0.00000000  1
  Na  Na1  1  0.33669217  0.33669217  0.00000000  1
  Sn  Sn0  1  0.00000000  0.00000000  0.00000000  1
