# generated using pymatgen
data_395_Ir2Pb2
_symmetry_space_group_name_H-M   'P4/nmm'
_cell_length_a   3.33941516
_cell_length_b   3.33941516
_cell_length_c   8.21469864
_cell_angle_alpha   90.00000000
_cell_angle_beta   90.00000000
_cell_angle_gamma   90.00000000
_chemical_formula_structural   Ir2Pb2
_chemical_formula_sum   'Ir2 Pb2'
_cell_volume   91.60780234
loop_
 _symmetry_equiv_pos_site_id
 _symmetry_equiv_pos_as_xyz
  1  'x, y, z'
loop_
 _atom_type_symbol
  Ir
  Pb
loop_
 _atom_site_type_symbol
 _atom_site_label
 _atom_site_symmetry_multiplicity
 _atom_site_fract_x
 _atom_site_fract_y
 _atom_site_fract_z
 _atom_site_occupancy
  Ir  Ir0  1  0.00000000  0.00000000  0.05271165  1
  Ir  Ir1  1  0.50000000  0.50000000  0.19728835  1
  Pb  Pb0  1  0.00000000  0.00000000  0.43024646  1
  Pb  Pb1  1  0.50000000  0.50000000  0.81975354  1
