# generated using pymatgen
data_396_Au2Nb2
_symmetry_space_group_name_H-M   'Cmme'
_cell_length_a   2.84538963
_cell_length_b   2.84538963
_cell_length_c   9.03121610
_cell_angle_alpha   90.00000000
_cell_angle_beta   90.00000000
_cell_angle_gamma   100.86381113
_chemical_formula_structural   Au2Nb2
_chemical_formula_sum   'Au2 Nb2'
_cell_volume   71.80847185
loop_
 _symmetry_equiv_pos_site_id
 _symmetry_equiv_pos_as_xyz
  1  'x, y, z'
loop_
 _atom_type_symbol
  Au
  Nb
loop_
 _atom_site_type_symbol
 _atom_site_label
 _atom_site_symmetry_multiplicity
 _atom_site_fract_x
 _atom_site_fract_y
 _atom_site_fract_z
 _atom_site_occupancy
  Au  Au0  1  1.00000000  0.00000000  0.00629055  1
  Au  Au1  1  0.50000000  0.50000000  0.74370945  1
  Nb  Nb0  1  1.00000000  0.00000000  0.49961227  1
  Nb  Nb1  1  0.50000000  0.50000000  0.25038773  1
