# generated using pymatgen
data_3980_SrI
_symmetry_space_group_name_H-M   'P-6m2'
_cell_length_a   4.30235533
_cell_length_b   4.30235412
_cell_length_c   4.91690940
_cell_angle_alpha   89.99993731
_cell_angle_beta   90.00013689
_cell_angle_gamma   120.00002790
_chemical_formula_structural   SrI
_chemical_formula_sum   'I1 Sr1'
_cell_volume   78.81976675
loop_
 _symmetry_equiv_pos_site_id
 _symmetry_equiv_pos_as_xyz
  1  'x, y, z'
loop_
 _atom_type_symbol
  I
  Sr
loop_
 _atom_site_type_symbol
 _atom_site_label
 _atom_site_symmetry_multiplicity
 _atom_site_fract_x
 _atom_site_fract_y
 _atom_site_fract_z
 _atom_site_occupancy
  I  I0  1  0.66666737  0.33333524  0.75000056  1
  Sr  Sr0  1  0.33333363  0.66666668  0.25000092  1
