# generated using pymatgen
data_3984_Mo3Sn
_symmetry_space_group_name_H-M   'P4/mmm'
_cell_length_a   3.32530743
_cell_length_b   3.32530743
_cell_length_c   6.16433309
_cell_angle_alpha   90.00000000
_cell_angle_beta   90.00000000
_cell_angle_gamma   90.00000000
_chemical_formula_structural   Mo3Sn
_chemical_formula_sum   'Mo3 Sn1'
_cell_volume   68.16315802
loop_
 _symmetry_equiv_pos_site_id
 _symmetry_equiv_pos_as_xyz
  1  'x, y, z'
loop_
 _atom_type_symbol
  Mo
  Sn
loop_
 _atom_site_type_symbol
 _atom_site_label
 _atom_site_symmetry_multiplicity
 _atom_site_fract_x
 _atom_site_fract_y
 _atom_site_fract_z
 _atom_site_occupancy
  Mo  Mo0  1  0.50000000  0.50000000  0.73425380  1
  Mo  Mo1  1  0.00000000  0.00000000  0.50000000  1
  Mo  Mo2  1  0.50000000  0.50000000  0.26574620  1
  Sn  Sn0  1  0.00000000  0.00000000  0.00000000  1
