# generated using pymatgen
data_398_Nb2V4
_symmetry_space_group_name_H-M   'I4_1/amd'
_cell_length_a   3.39673724
_cell_length_b   3.39013366
_cell_length_c   16.32847775
_cell_angle_alpha   90.00000000
_cell_angle_beta   90.00000000
_cell_angle_gamma   90.00000000
_chemical_formula_structural   Nb2V4
_chemical_formula_sum   'Nb4 V8'
_cell_volume   188.02884249
loop_
 _symmetry_equiv_pos_site_id
 _symmetry_equiv_pos_as_xyz
  1  'x, y, z'
loop_
 _atom_type_symbol
  Nb
  V
loop_
 _atom_site_type_symbol
 _atom_site_label
 _atom_site_symmetry_multiplicity
 _atom_site_fract_x
 _atom_site_fract_y
 _atom_site_fract_z
 _atom_site_occupancy
  Nb  Nb0  1  0.00000000  0.25000000  0.62477742  1
  Nb  Nb1  1  0.00000000  0.75000000  0.37522258  1
  Nb  Nb2  1  0.50000000  0.75000000  0.12477742  1
  Nb  Nb3  1  0.50000000  0.25000000  0.87522258  1
  V  V0  1  0.00000000  0.25000000  0.04871491  1
  V  V1  1  0.00000000  0.75000000  0.95128509  1
  V  V2  1  0.50000000  0.75000000  0.54871491  1
  V  V3  1  0.50000000  0.25000000  0.45128509  1
  V  V4  1  0.00000000  0.25000000  0.20130447  1
  V  V5  1  0.00000000  0.75000000  0.79869553  1
  V  V6  1  0.50000000  0.75000000  0.70130447  1
  V  V7  1  0.50000000  0.25000000  0.29869553  1
