# generated using pymatgen
data_3991_CeAs
_symmetry_space_group_name_H-M   'Fm -3 m'
_cell_length_a   4.34405227
_cell_length_b   4.34405227
_cell_length_c   4.34405227
_cell_angle_alpha   120.00000000
_cell_angle_beta   90.00000000
_cell_angle_gamma   120.00000000
_chemical_formula_structural   CeAs
_chemical_formula_sum   'As1 Ce1'
_cell_volume   57.96557254
loop_
 _symmetry_equiv_pos_site_id
 _symmetry_equiv_pos_as_xyz
  1  'x, y, z'
loop_
 _atom_type_symbol
  As
  Ce
loop_
 _atom_site_type_symbol
 _atom_site_label
 _atom_site_symmetry_multiplicity
 _atom_site_fract_x
 _atom_site_fract_y
 _atom_site_fract_z
 _atom_site_occupancy
  As  As0  1  0.00000000  0.00000000  0.00000000  1
  Ce  Ce0  1  0.50000000  0.00000000  0.50000000  1
