# generated using pymatgen
data_399_Au2Nb2
_symmetry_space_group_name_H-M   'Pmma'
_cell_length_a   2.87226627
_cell_length_b   4.72593849
_cell_length_c   5.18761198
_cell_angle_alpha   90.00000000
_cell_angle_beta   90.11147015
_cell_angle_gamma   90.00000000
_chemical_formula_structural   Au2Nb2
_chemical_formula_sum   'Au2 Nb2'
_cell_volume   70.41730930
loop_
 _symmetry_equiv_pos_site_id
 _symmetry_equiv_pos_as_xyz
  1  'x, y, z'
loop_
 _atom_type_symbol
  Au
  Nb
loop_
 _atom_site_type_symbol
 _atom_site_label
 _atom_site_symmetry_multiplicity
 _atom_site_fract_x
 _atom_site_fract_y
 _atom_site_fract_z
 _atom_site_occupancy
  Au  Au0  1  0.49759828  0.25000000  0.66230355  1
  Au  Au1  1  0.50240172  0.75000000  0.33769645  1
  Nb  Nb0  1  0.99887898  0.25000000  0.16321284  1
  Nb  Nb1  1  0.00112102  0.75000000  0.83678716  1
