# generated using pymatgen
data_4001_KSr5
_symmetry_space_group_name_H-M   'F-43m'
_cell_length_a   8.00976524
_cell_length_b   8.00976524
_cell_length_c   8.00976524
_cell_angle_alpha   60.00000000
_cell_angle_beta   60.00000000
_cell_angle_gamma   60.00000000
_chemical_formula_structural   KSr5
_chemical_formula_sum   'K1 Sr5'
_cell_volume   363.36606448
loop_
 _symmetry_equiv_pos_site_id
 _symmetry_equiv_pos_as_xyz
  1  'x, y, z'
loop_
 _atom_type_symbol
  K
  Sr
loop_
 _atom_site_type_symbol
 _atom_site_label
 _atom_site_symmetry_multiplicity
 _atom_site_fract_x
 _atom_site_fract_y
 _atom_site_fract_z
 _atom_site_occupancy
  K  K0  1  0.00000000  0.00000000  0.00000000  1
  Sr  Sr0  1  0.75000000  0.75000000  0.75000000  1
  Sr  Sr1  1  0.37534264  0.37534264  0.87397209  1
  Sr  Sr2  1  0.37534264  0.37534264  0.37534264  1
  Sr  Sr3  1  0.87397209  0.37534264  0.37534264  1
  Sr  Sr4  1  0.37534264  0.87397209  0.37534264  1
