# generated using pymatgen
data_4003_Na4P20
_symmetry_space_group_name_H-M   'Pnma'
_cell_length_a   6.54836991
_cell_length_b   7.06767214
_cell_length_c   11.05136380
_cell_angle_alpha   90.00000000
_cell_angle_beta   90.00000000
_cell_angle_gamma   90.00000000
_chemical_formula_structural   Na4P20
_chemical_formula_sum   'Na4 P20'
_cell_volume   511.47625293
loop_
 _symmetry_equiv_pos_site_id
 _symmetry_equiv_pos_as_xyz
  1  'x, y, z'
loop_
 _atom_type_symbol
  Na
  P
loop_
 _atom_site_type_symbol
 _atom_site_label
 _atom_site_symmetry_multiplicity
 _atom_site_fract_x
 _atom_site_fract_y
 _atom_site_fract_z
 _atom_site_occupancy
  Na  Na0  1  0.75000000  0.91052105  0.42469498  1
  Na  Na1  1  0.25000000  0.41052105  0.07530502  1
  Na  Na2  1  0.25000000  0.08947895  0.57530502  1
  Na  Na3  1  0.75000000  0.58947895  0.92469498  1
  P  P0  1  0.98660900  0.90647809  0.08161211  1
  P  P1  1  0.01339100  0.40647809  0.41838789  1
  P  P2  1  0.48660900  0.09352191  0.91838789  1
  P  P3  1  0.51339100  0.59352191  0.58161211  1
  P  P4  1  0.01339100  0.09352191  0.91838789  1
  P  P5  1  0.98660900  0.59352191  0.58161211  1
  P  P6  1  0.51339100  0.90647809  0.08161211  1
  P  P7  1  0.48660900  0.40647809  0.41838789  1
  P  P8  1  0.75000000  0.36628960  0.14064671  1
  P  P9  1  0.25000000  0.86628960  0.35935329  1
  P  P10  1  0.25000000  0.63371040  0.85935329  1
  P  P11  1  0.75000000  0.13371040  0.64064671  1
  P  P12  1  0.75000000  0.52001165  0.31113108  1
  P  P13  1  0.25000000  0.02001165  0.18886892  1
  P  P14  1  0.25000000  0.47998835  0.68886892  1
  P  P15  1  0.75000000  0.97998835  0.81113108  1
  P  P16  1  0.75000000  0.43449752  0.68609026  1
  P  P17  1  0.25000000  0.93449752  0.81390974  1
  P  P18  1  0.25000000  0.56550248  0.31390974  1
  P  P19  1  0.75000000  0.06550248  0.18609026  1
