# generated using pymatgen
data_4005_Mn2Sb2
_symmetry_space_group_name_H-M   'Cmcm'
_cell_length_a   4.08749631
_cell_length_b   3.59750365
_cell_length_c   7.37227275
_cell_angle_alpha   43.47731161
_cell_angle_beta   90.00000000
_cell_angle_gamma   90.00000000
_chemical_formula_structural   Mn2Sb2
_chemical_formula_sum   'Mn2 Sb2'
_cell_volume   74.59177111
loop_
 _symmetry_equiv_pos_site_id
 _symmetry_equiv_pos_as_xyz
  1  'x, y, z'
loop_
 _atom_type_symbol
  Mn
  Sb
loop_
 _atom_site_type_symbol
 _atom_site_label
 _atom_site_symmetry_multiplicity
 _atom_site_fract_x
 _atom_site_fract_y
 _atom_site_fract_z
 _atom_site_occupancy
  Mn  Mn0  1  0.75000000  0.23779741  0.34141749  1
  Mn  Mn1  1  0.25000000  0.76220259  0.65858251  1
  Sb  Sb0  1  0.75000000  0.08067320  0.78029722  1
  Sb  Sb1  1  0.25000000  0.91932680  0.21970278  1
