# generated using pymatgen
data_4009_Ag2Ba2
_symmetry_space_group_name_H-M   'Cmcm'
_cell_length_a   6.72487703
_cell_length_b   6.72487703
_cell_length_c   5.01522463
_cell_angle_alpha   90.00000000
_cell_angle_beta   90.00000000
_cell_angle_gamma   139.32015308
_chemical_formula_structural   Ag2Ba2
_chemical_formula_sum   'Ag2 Ba2'
_cell_volume   147.84088760
loop_
 _symmetry_equiv_pos_site_id
 _symmetry_equiv_pos_as_xyz
  1  'x, y, z'
loop_
 _atom_type_symbol
  Ag
  Ba
loop_
 _atom_site_type_symbol
 _atom_site_label
 _atom_site_symmetry_multiplicity
 _atom_site_fract_x
 _atom_site_fract_y
 _atom_site_fract_z
 _atom_site_occupancy
  Ag  Ag0  1  0.93347101  0.06652899  0.75000000  1
  Ag  Ag1  1  0.06652899  0.93347101  0.25000000  1
  Ba  Ba0  1  0.63839446  0.36160554  0.75000000  1
  Ba  Ba1  1  0.36160554  0.63839446  0.25000000  1
