# generated using pymatgen
data_4012_Na2Pd4
_symmetry_space_group_name_H-M   'Cmcm'
_cell_length_a   2.85540713
_cell_length_b   7.87714357
_cell_length_c   4.62598616
_cell_angle_alpha   90.00000000
_cell_angle_beta   90.00000000
_cell_angle_gamma   79.55763505
_chemical_formula_structural   Na2Pd4
_chemical_formula_sum   'Na2 Pd4'
_cell_volume   102.32647031
loop_
 _symmetry_equiv_pos_site_id
 _symmetry_equiv_pos_as_xyz
  1  'x, y, z'
loop_
 _atom_type_symbol
  Na
  Pd
loop_
 _atom_site_type_symbol
 _atom_site_label
 _atom_site_symmetry_multiplicity
 _atom_site_fract_x
 _atom_site_fract_y
 _atom_site_fract_z
 _atom_site_occupancy
  Na  Na0  1  0.99259938  0.01480124  0.00000000  1
  Na  Na1  1  0.56295618  0.87408765  0.50000000  1
  Pd  Pd0  1  0.67481656  0.65036688  0.00000000  1
  Pd  Pd1  1  0.33115325  0.33769350  0.00000000  1
  Pd  Pd2  1  0.22440231  0.55119538  0.50000000  1
  Pd  Pd3  1  0.88073900  0.23852201  0.50000000  1
