# generated using pymatgen
data_4013_MoRh2
_symmetry_space_group_name_H-M   'Immm'
_cell_length_a   3.86708414
_cell_length_b   8.30653380
_cell_length_c   2.73607636
_cell_angle_alpha   90.00000000
_cell_angle_beta   90.00000000
_cell_angle_gamma   90.00000000
_chemical_formula_structural   MoRh2
_chemical_formula_sum   'Mo2 Rh4'
_cell_volume   87.88842300
loop_
 _symmetry_equiv_pos_site_id
 _symmetry_equiv_pos_as_xyz
  1  'x, y, z'
loop_
 _atom_type_symbol
  Mo
  Rh
loop_
 _atom_site_type_symbol
 _atom_site_label
 _atom_site_symmetry_multiplicity
 _atom_site_fract_x
 _atom_site_fract_y
 _atom_site_fract_z
 _atom_site_occupancy
  Mo  Mo0  1  0.00000000  0.00000000  0.00000000  1
  Mo  Mo1  1  0.50000000  0.50000000  0.50000000  1
  Rh  Rh0  1  0.00075398  0.33435425  0.00000000  1
  Rh  Rh1  1  0.49924602  0.83435425  0.50000000  1
  Rh  Rh2  1  0.50075398  0.16564575  0.50000000  1
  Rh  Rh3  1  0.99924602  0.66564575  0.00000000  1
