# generated using pymatgen
data_4016_Cu17Nb12
_symmetry_space_group_name_H-M   'I-43m'
_cell_length_a   8.32099699
_cell_length_b   8.32099699
_cell_length_c   8.32099699
_cell_angle_alpha   109.47122063
_cell_angle_beta   109.47122063
_cell_angle_gamma   109.47122063
_chemical_formula_structural   Cu17Nb12
_chemical_formula_sum   'Cu17 Nb12'
_cell_volume   443.51080362
loop_
 _symmetry_equiv_pos_site_id
 _symmetry_equiv_pos_as_xyz
  1  'x, y, z'
loop_
 _atom_type_symbol
  Cu
  Nb
loop_
 _atom_site_type_symbol
 _atom_site_label
 _atom_site_symmetry_multiplicity
 _atom_site_fract_x
 _atom_site_fract_y
 _atom_site_fract_z
 _atom_site_occupancy
  Cu  Cu0  1  0.68904455  0.26378518  0.68904455  1
  Cu  Cu1  1  0.42525937  0.73621482  0.42525937  1
  Cu  Cu2  1  0.31095545  0.00000000  0.57474063  1
  Cu  Cu3  1  0.57474063  0.00000000  0.31095545  1
  Cu  Cu4  1  0.31095545  0.57474063  0.00000000  1
  Cu  Cu5  1  0.57474063  0.31095545  0.00000000  1
  Cu  Cu6  1  0.42525937  0.42525937  0.73621482  1
  Cu  Cu7  1  0.68904455  0.68904455  0.26378518  1
  Cu  Cu8  1  0.00000000  0.57474063  0.31095545  1
  Cu  Cu9  1  0.00000000  0.31095545  0.57474063  1
  Cu  Cu10  1  0.26378518  0.68904455  0.68904455  1
  Cu  Cu11  1  0.73621482  0.42525937  0.42525937  1
  Cu  Cu12  1  1.00000000  0.34152781  0.00000000  1
  Cu  Cu13  1  0.65847219  0.65847219  0.65847219  1
  Cu  Cu14  1  1.00000000  0.00000000  0.34152781  1
  Cu  Cu15  1  0.34152781  0.00000000  0.00000000  1
  Cu  Cu16  1  0.00000000  0.00000000  0.00000000  1
  Nb  Nb0  1  0.19017837  0.79900466  0.19017837  1
  Nb  Nb1  1  0.39117371  0.20099534  0.39117371  1
  Nb  Nb2  1  0.80982163  0.00000000  0.60882629  1
  Nb  Nb3  1  0.60882629  0.00000000  0.80982163  1
  Nb  Nb4  1  0.80982163  0.60882629  0.00000000  1
  Nb  Nb5  1  0.60882629  0.80982163  0.00000000  1
  Nb  Nb6  1  0.39117371  0.39117371  0.20099534  1
  Nb  Nb7  1  0.19017837  0.19017837  0.79900466  1
  Nb  Nb8  1  1.00000000  0.60882629  0.80982163  1
  Nb  Nb9  1  1.00000000  0.80982163  0.60882629  1
  Nb  Nb10  1  0.79900466  0.19017837  0.19017837  1
  Nb  Nb11  1  0.20099534  0.39117371  0.39117371  1
