# generated using pymatgen
data_4017_Cu8In
_symmetry_space_group_name_H-M   'I4/mmm'
_cell_length_a   5.84157905
_cell_length_b   5.84157905
_cell_length_c   5.84157905
_cell_angle_alpha   95.75463403
_cell_angle_beta   95.75463403
_cell_angle_gamma   143.07884680
_chemical_formula_structural   Cu8In
_chemical_formula_sum   'Cu8 In1'
_cell_volume   113.58370001
loop_
 _symmetry_equiv_pos_site_id
 _symmetry_equiv_pos_as_xyz
  1  'x, y, z'
loop_
 _atom_type_symbol
  Cu
  In
loop_
 _atom_site_type_symbol
 _atom_site_label
 _atom_site_symmetry_multiplicity
 _atom_site_fract_x
 _atom_site_fract_y
 _atom_site_fract_z
 _atom_site_occupancy
  Cu  Cu0  1  0.67468613  0.67468613  0.34937227  1
  Cu  Cu1  1  0.32531387  0.32531387  0.65062773  1
  Cu  Cu2  1  0.00000000  0.34120129  0.34120129  1
  Cu  Cu3  1  0.32531387  0.67468613  0.00000000  1
  Cu  Cu4  1  0.65879871  1.00000000  0.65879871  1
  Cu  Cu5  1  0.67468613  0.32531387  0.00000000  1
  Cu  Cu6  1  0.00000000  0.65879871  0.65879871  1
  Cu  Cu7  1  0.34120129  1.00000000  0.34120129  1
  In  In0  1  0.00000000  0.00000000  0.00000000  1
