# generated using pymatgen
data_4025_Fe3W
_symmetry_space_group_name_H-M   'Immm'
_cell_length_a   4.06991868
_cell_length_b   4.80791625
_cell_length_c   3.01255011
_cell_angle_alpha   71.74234915
_cell_angle_beta   90.00000000
_cell_angle_gamma   115.04005999
_chemical_formula_structural   Fe3W
_chemical_formula_sum   'Fe3 W1'
_cell_volume   50.11387661
loop_
 _symmetry_equiv_pos_site_id
 _symmetry_equiv_pos_as_xyz
  1  'x, y, z'
loop_
 _atom_type_symbol
  Fe
  W
loop_
 _atom_site_type_symbol
 _atom_site_label
 _atom_site_symmetry_multiplicity
 _atom_site_fract_x
 _atom_site_fract_y
 _atom_site_fract_z
 _atom_site_occupancy
  Fe  Fe0  1  0.00301579  0.00603158  0.99698421  1
  Fe  Fe1  1  0.25000000  0.50000000  0.25000000  1
  Fe  Fe2  1  0.49698421  0.99396842  0.50301579  1
  W  W0  1  0.75000000  0.50000000  0.75000000  1
