# generated using pymatgen
data_4028_Au5Ni
_symmetry_space_group_name_H-M   'Amm2'
_cell_length_a   2.90233572
_cell_length_b   7.53653719
_cell_length_c   4.76550314
_cell_angle_alpha   90.00000000
_cell_angle_beta   90.00000000
_cell_angle_gamma   78.89830411
_chemical_formula_structural   Au5Ni
_chemical_formula_sum   'Au5 Ni1'
_cell_volume   102.28790497
loop_
 _symmetry_equiv_pos_site_id
 _symmetry_equiv_pos_as_xyz
  1  'x, y, z'
loop_
 _atom_type_symbol
  Au
  Ni
loop_
 _atom_site_type_symbol
 _atom_site_label
 _atom_site_symmetry_multiplicity
 _atom_site_fract_x
 _atom_site_fract_y
 _atom_site_fract_z
 _atom_site_occupancy
  Au  Au0  1  0.99737821  0.00524358  0.00000000  1
  Au  Au1  1  0.66633557  0.66732887  0.00000000  1
  Au  Au2  1  0.33630944  0.32738113  0.00000000  1
  Au  Au3  1  0.54774932  0.90450136  0.50000000  1
  Au  Au4  1  0.23051806  0.53896388  0.50000000  1
  Ni  Ni0  1  0.88837607  0.22324786  0.50000000  1
