# generated using pymatgen
data_4031_Mn4P2
_symmetry_space_group_name_H-M   'Pnnm'
_cell_length_a   3.28227899
_cell_length_b   4.56234518
_cell_length_c   5.56336080
_cell_angle_alpha   90.00000000
_cell_angle_beta   90.00000000
_cell_angle_gamma   90.00000000
_chemical_formula_structural   Mn4P2
_chemical_formula_sum   'Mn4 P2'
_cell_volume   83.31071451
loop_
 _symmetry_equiv_pos_site_id
 _symmetry_equiv_pos_as_xyz
  1  'x, y, z'
loop_
 _atom_type_symbol
  Mn
  P
loop_
 _atom_site_type_symbol
 _atom_site_label
 _atom_site_symmetry_multiplicity
 _atom_site_fract_x
 _atom_site_fract_y
 _atom_site_fract_z
 _atom_site_occupancy
  Mn  Mn0  1  0.00000000  0.22532484  0.64579199  1
  Mn  Mn1  1  0.00000000  0.77467516  0.35420801  1
  Mn  Mn2  1  0.50000000  0.72532484  0.85420801  1
  Mn  Mn3  1  0.50000000  0.27467516  0.14579199  1
  P  P0  1  0.00000000  0.00000000  0.00000000  1
  P  P1  1  0.50000000  0.50000000  0.50000000  1
