# generated using pymatgen
data_4033_Ni3Yb
_symmetry_space_group_name_H-M   'I4/mmm'
_cell_length_a   4.39337211
_cell_length_b   4.39337211
_cell_length_c   4.39337211
_cell_angle_alpha   126.49742230
_cell_angle_beta   126.49742230
_cell_angle_gamma   79.07211984
_chemical_formula_structural   Ni3Yb
_chemical_formula_sum   'Ni3 Yb1'
_cell_volume   53.00152122
loop_
 _symmetry_equiv_pos_site_id
 _symmetry_equiv_pos_as_xyz
  1  'x, y, z'
loop_
 _atom_type_symbol
  Ni
  Yb
loop_
 _atom_site_type_symbol
 _atom_site_label
 _atom_site_symmetry_multiplicity
 _atom_site_fract_x
 _atom_site_fract_y
 _atom_site_fract_z
 _atom_site_occupancy
  Ni  Ni0  1  0.50000069  0.50000069  0.00000000  1
  Ni  Ni1  1  0.74999840  0.24999961  0.49999879  1
  Ni  Ni2  1  0.24999961  0.74999840  0.49999879  1
  Yb  Yb0  1  0.00000000  0.00000000  0.00000000  1
