# generated using pymatgen
data_4037_Ca8Br16
_symmetry_space_group_name_H-M   'Fd -3 m'
_cell_length_a   10.20008757
_cell_length_b   10.20008757
_cell_length_c   10.20008757
_cell_angle_alpha   60.00000000
_cell_angle_beta   60.00000000
_cell_angle_gamma   60.00000000
_chemical_formula_structural   Ca8Br16
_chemical_formula_sum   'Br16 Ca8'
_cell_volume   750.40670028
loop_
 _symmetry_equiv_pos_site_id
 _symmetry_equiv_pos_as_xyz
  1  'x, y, z'
loop_
 _atom_type_symbol
  Br
  Ca
loop_
 _atom_site_type_symbol
 _atom_site_label
 _atom_site_symmetry_multiplicity
 _atom_site_fract_x
 _atom_site_fract_y
 _atom_site_fract_z
 _atom_site_occupancy
  Br  Br0  1  0.00000000  0.50000000  0.00000000  1
  Br  Br1  1  0.50000000  0.00000000  0.00000000  1
  Br  Br2  1  0.50000000  0.50000000  0.00000000  1
  Br  Br3  1  0.50000000  0.50000000  0.50000000  1
  Br  Br4  1  0.92279663  0.92279663  0.82720337  1
  Br  Br5  1  0.92279663  0.32720337  0.82720337  1
  Br  Br6  1  0.32720337  0.92279663  0.82720337  1
  Br  Br7  1  0.92279663  0.32720337  0.42279663  1
  Br  Br8  1  0.32720337  0.92279663  0.42279663  1
  Br  Br9  1  0.32720337  0.32720337  0.42279663  1
  Br  Br10  1  0.07720337  0.07720337  0.17279663  1
  Br  Br11  1  0.07720337  0.67279663  0.17279663  1
  Br  Br12  1  0.67279663  0.07720337  0.17279663  1
  Br  Br13  1  0.07720337  0.67279663  0.57720337  1
  Br  Br14  1  0.67279663  0.07720337  0.57720337  1
  Br  Br15  1  0.67279663  0.67279663  0.57720337  1
  Ca  Ca0  1  0.74635076  0.74635076  0.76094773  1
  Ca  Ca1  1  0.74635076  0.74635076  0.24635076  1
  Ca  Ca2  1  0.74635076  0.26094773  0.24635076  1
  Ca  Ca3  1  0.26094773  0.74635076  0.24635076  1
  Ca  Ca4  1  0.25364924  0.25364924  0.23905227  1
  Ca  Ca5  1  0.25364924  0.25364924  0.75364924  1
  Ca  Ca6  1  0.25364924  0.73905227  0.75364924  1
  Ca  Ca7  1  0.73905227  0.25364924  0.75364924  1
