# generated using pymatgen
data_4040_Na3V
_symmetry_space_group_name_H-M   'Pmm2'
_cell_length_a   3.11410077
_cell_length_b   5.65928676
_cell_length_c   6.18558158
_cell_angle_alpha   90.00000000
_cell_angle_beta   90.00000000
_cell_angle_gamma   90.00000000
_chemical_formula_structural   Na3V
_chemical_formula_sum   'Na3 V1'
_cell_volume   109.01214908
loop_
 _symmetry_equiv_pos_site_id
 _symmetry_equiv_pos_as_xyz
  1  'x, y, z'
loop_
 _atom_type_symbol
  Na
  V
loop_
 _atom_site_type_symbol
 _atom_site_label
 _atom_site_symmetry_multiplicity
 _atom_site_fract_x
 _atom_site_fract_y
 _atom_site_fract_z
 _atom_site_occupancy
  Na  Na0  1  0.00000000  0.00000000  0.04921668  1
  Na  Na1  1  0.50000000  0.00000000  0.50874393  1
  Na  Na2  1  0.50000000  0.50000000  0.80426563  1
  V  V0  1  0.00000000  0.50000000  0.30444042  1
