# generated using pymatgen
data_4048_Na4Rh16
_symmetry_space_group_name_H-M   'I23'
_cell_length_a   7.90264611
_cell_length_b   7.90264611
_cell_length_c   7.90264611
_cell_angle_alpha   109.47122063
_cell_angle_beta   109.47122063
_cell_angle_gamma   109.47122063
_chemical_formula_structural   Na4Rh16
_chemical_formula_sum   'Na4 Rh16'
_cell_volume   379.92311029
loop_
 _symmetry_equiv_pos_site_id
 _symmetry_equiv_pos_as_xyz
  1  'x, y, z'
loop_
 _atom_type_symbol
  Na
  Rh
loop_
 _atom_site_type_symbol
 _atom_site_label
 _atom_site_symmetry_multiplicity
 _atom_site_fract_x
 _atom_site_fract_y
 _atom_site_fract_z
 _atom_site_occupancy
  Na  Na0  1  0.44289733  0.44289733  0.44289733  1
  Na  Na1  1  0.55710267  0.00000000  0.00000000  1
  Na  Na2  1  0.00000000  0.55710267  0.00000000  1
  Na  Na3  1  0.00000000  0.00000000  0.55710267  1
  Rh  Rh0  1  0.77487125  0.77487125  0.77487125  1
  Rh  Rh1  1  0.22512875  0.00000000  0.00000000  1
  Rh  Rh2  1  0.00000000  0.22512875  0.00000000  1
  Rh  Rh3  1  0.00000000  0.00000000  0.22512875  1
  Rh  Rh4  1  0.65173050  0.65173050  0.00000000  1
  Rh  Rh5  1  0.34826950  0.34826950  0.00000000  1
  Rh  Rh6  1  0.65173050  0.00000000  0.65173050  1
  Rh  Rh7  1  0.34826950  0.00000000  0.34826950  1
  Rh  Rh8  1  0.00000000  0.65173050  0.65173050  1
  Rh  Rh9  1  1.00000000  0.34826950  0.34826950  1
  Rh  Rh10  1  0.24220364  0.74220364  0.50000000  1
  Rh  Rh11  1  0.75779636  0.25779636  0.50000000  1
  Rh  Rh12  1  0.74220364  0.50000000  0.24220364  1
  Rh  Rh13  1  0.25779636  0.50000000  0.75779636  1
  Rh  Rh14  1  0.50000000  0.24220364  0.74220364  1
  Rh  Rh15  1  0.50000000  0.75779636  0.25779636  1
