# generated using pymatgen
data_4049_GaTh3
_symmetry_space_group_name_H-M   'Pm -3 m'
_cell_length_a   4.84265743
_cell_length_b   4.84265743
_cell_length_c   4.84265743
_cell_angle_alpha   90.00000000
_cell_angle_beta   90.00000000
_cell_angle_gamma   90.00000000
_chemical_formula_structural   GaTh3
_chemical_formula_sum   'Ga1 Th3'
_cell_volume   113.56676223
loop_
 _symmetry_equiv_pos_site_id
 _symmetry_equiv_pos_as_xyz
  1  'x, y, z'
loop_
 _atom_type_symbol
  Ga
  Th
loop_
 _atom_site_type_symbol
 _atom_site_label
 _atom_site_symmetry_multiplicity
 _atom_site_fract_x
 _atom_site_fract_y
 _atom_site_fract_z
 _atom_site_occupancy
  Ga  Ga0  1  0.00000000  0.00000000  0.00000000  1
  Th  Th0  1  0.50000000  0.50000000  0.00000000  1
  Th  Th1  1  0.50000000  0.00000000  0.50000000  1
  Th  Th2  1  0.00000000  0.50000000  0.50000000  1
