# generated using pymatgen
data_4054_MnTa2
_symmetry_space_group_name_H-M   'Fmmm'
_cell_length_a   3.21867743
_cell_length_b   6.54631226
_cell_length_c   4.66215834
_cell_angle_alpha   90.00000000
_cell_angle_beta   90.00000000
_cell_angle_gamma   75.76857984
_chemical_formula_structural   MnTa2
_chemical_formula_sum   'Mn2 Ta4'
_cell_volume   95.21912582
loop_
 _symmetry_equiv_pos_site_id
 _symmetry_equiv_pos_as_xyz
  1  'x, y, z'
loop_
 _atom_type_symbol
  Mn
  Ta
loop_
 _atom_site_type_symbol
 _atom_site_label
 _atom_site_symmetry_multiplicity
 _atom_site_fract_x
 _atom_site_fract_y
 _atom_site_fract_z
 _atom_site_occupancy
  Mn  Mn0  1  0.02849268  0.94301465  0.00000000  1
  Mn  Mn1  1  0.52706288  0.94587424  0.50000000  1
  Ta  Ta0  1  0.68395166  0.63209667  0.00000000  1
  Ta  Ta1  1  0.37293394  0.25413211  0.00000000  1
  Ta  Ta2  1  0.18262161  0.63475678  0.50000000  1
  Ta  Ta3  1  0.87160389  0.25679222  0.50000000  1
