# generated using pymatgen
data_4058_SrAs
_symmetry_space_group_name_H-M   'P4/mmm'
_cell_length_a   5.71448686
_cell_length_b   3.36906241
_cell_length_c   6.62439740
_cell_angle_alpha   59.45561550
_cell_angle_beta   90.00000000
_cell_angle_gamma   90.00000000
_chemical_formula_structural   SrAs
_chemical_formula_sum   'As2 Sr2'
_cell_volume   109.83853033
loop_
 _symmetry_equiv_pos_site_id
 _symmetry_equiv_pos_as_xyz
  1  'x, y, z'
loop_
 _atom_type_symbol
  As
  Sr
loop_
 _atom_site_type_symbol
 _atom_site_label
 _atom_site_symmetry_multiplicity
 _atom_site_fract_x
 _atom_site_fract_y
 _atom_site_fract_z
 _atom_site_occupancy
  As  As0  1  0.75000000  0.25275907  0.74941606  1
  As  As1  1  0.25000000  0.74724093  0.25058394  1
  Sr  Sr0  1  0.75000000  0.25491654  0.24927529  1
  Sr  Sr1  1  0.25000000  0.74508346  0.75072471  1
