# generated using pymatgen
data_4059_Pb2P6
_symmetry_space_group_name_H-M   'Pmmn'
_cell_length_a   5.17166892
_cell_length_b   4.76766623
_cell_length_c   7.44835417
_cell_angle_alpha   90.00000000
_cell_angle_beta   90.00000000
_cell_angle_gamma   90.00000000
_chemical_formula_structural   Pb2P6
_chemical_formula_sum   'P6 Pb2'
_cell_volume   183.65251402
loop_
 _symmetry_equiv_pos_site_id
 _symmetry_equiv_pos_as_xyz
  1  'x, y, z'
loop_
 _atom_type_symbol
  P
  Pb
loop_
 _atom_site_type_symbol
 _atom_site_label
 _atom_site_symmetry_multiplicity
 _atom_site_fract_x
 _atom_site_fract_y
 _atom_site_fract_z
 _atom_site_occupancy
  P  P0  1  0.50000000  0.70197121  0.00000000  1
  P  P1  1  0.00000000  0.29802879  0.50000000  1
  P  P2  1  0.00000000  0.02662479  0.26442048  1
  P  P3  1  0.00000000  0.02662479  0.73557952  1
  P  P4  1  0.50000000  0.97337521  0.76442048  1
  P  P5  1  0.50000000  0.97337521  0.23557952  1
  Pb  Pb0  1  0.00000000  0.43937399  0.00000000  1
  Pb  Pb1  1  0.50000000  0.56062601  0.50000000  1
