# generated using pymatgen
data_4061_Mn5V
_symmetry_space_group_name_H-M   'Amm2'
_cell_length_a   2.48905353
_cell_length_b   6.68728846
_cell_length_c   4.11892831
_cell_angle_alpha   90.00000000
_cell_angle_beta   90.00000000
_cell_angle_gamma   79.27453332
_chemical_formula_structural   Mn5V
_chemical_formula_sum   'Mn5 V1'
_cell_volume   67.36191485
loop_
 _symmetry_equiv_pos_site_id
 _symmetry_equiv_pos_as_xyz
  1  'x, y, z'
loop_
 _atom_type_symbol
  Mn
  V
loop_
 _atom_site_type_symbol
 _atom_site_label
 _atom_site_symmetry_multiplicity
 _atom_site_fract_x
 _atom_site_fract_y
 _atom_site_fract_z
 _atom_site_occupancy
  Mn  Mn0  1  0.00396871  0.99206258  0.00000000  1
  Mn  Mn1  1  0.66765756  0.66468488  0.00000000  1
  Mn  Mn2  1  0.32867071  0.34265859  0.00000000  1
  Mn  Mn3  1  0.56119724  0.87760553  0.50000000  1
  Mn  Mn4  1  0.21703339  0.56593323  0.50000000  1
  V  V0  1  0.88813907  0.22372187  0.50000000  1
