# generated using pymatgen
data_4066_NbPt2
_symmetry_space_group_name_H-M   'Immm'
_cell_length_a   4.94056855
_cell_length_b   4.94056855
_cell_length_c   7.94611379
_cell_angle_alpha   66.32189292
_cell_angle_beta   66.32189292
_cell_angle_gamma   33.39716180
_chemical_formula_structural   NbPt2
_chemical_formula_sum   'Nb2 Pt4'
_cell_volume   96.92499501
loop_
 _symmetry_equiv_pos_site_id
 _symmetry_equiv_pos_as_xyz
  1  'x, y, z'
loop_
 _atom_type_symbol
  Nb
  Pt
loop_
 _atom_site_type_symbol
 _atom_site_label
 _atom_site_symmetry_multiplicity
 _atom_site_fract_x
 _atom_site_fract_y
 _atom_site_fract_z
 _atom_site_occupancy
  Nb  Nb0  1  0.50100455  0.50100455  0.24938846  1
  Nb  Nb1  1  0.49899545  0.49899545  0.75061154  1
  Pt  Pt0  1  0.16411733  0.16411733  0.91710119  1
  Pt  Pt1  1  0.83588267  0.83588267  0.08289881  1
  Pt  Pt2  1  0.16354605  0.16354605  0.41920439  1
  Pt  Pt3  1  0.83645395  0.83645395  0.58079561  1
