# generated using pymatgen
data_4069_Ba5P
_symmetry_space_group_name_H-M   'F-43m'
_cell_length_a   7.57147776
_cell_length_b   7.57147776
_cell_length_c   7.57147776
_cell_angle_alpha   60.00000000
_cell_angle_beta   60.00000000
_cell_angle_gamma   60.00000000
_chemical_formula_structural   Ba5P
_chemical_formula_sum   'Ba5 P1'
_cell_volume   306.92124823
loop_
 _symmetry_equiv_pos_site_id
 _symmetry_equiv_pos_as_xyz
  1  'x, y, z'
loop_
 _atom_type_symbol
  Ba
  P
loop_
 _atom_site_type_symbol
 _atom_site_label
 _atom_site_symmetry_multiplicity
 _atom_site_fract_x
 _atom_site_fract_y
 _atom_site_fract_z
 _atom_site_occupancy
  Ba  Ba0  1  0.75000000  0.75000000  0.75000000  1
  Ba  Ba1  1  0.37305952  0.37305952  0.88082145  1
  Ba  Ba2  1  0.37305952  0.37305952  0.37305952  1
  Ba  Ba3  1  0.88082145  0.37305952  0.37305952  1
  Ba  Ba4  1  0.37305952  0.88082145  0.37305952  1
  P  P0  1  0.00000000  0.00000000  0.00000000  1
