# generated using pymatgen
data_4073_Cu24In5
_symmetry_space_group_name_H-M   'I-43m'
_cell_length_a   7.99334021
_cell_length_b   7.99334021
_cell_length_c   7.99334021
_cell_angle_alpha   109.47122063
_cell_angle_beta   109.47122063
_cell_angle_gamma   109.47122063
_chemical_formula_structural   Cu24In5
_chemical_formula_sum   'Cu24 In5'
_cell_volume   393.15427439
loop_
 _symmetry_equiv_pos_site_id
 _symmetry_equiv_pos_as_xyz
  1  'x, y, z'
loop_
 _atom_type_symbol
  Cu
  In
loop_
 _atom_site_type_symbol
 _atom_site_label
 _atom_site_symmetry_multiplicity
 _atom_site_fract_x
 _atom_site_fract_y
 _atom_site_fract_z
 _atom_site_occupancy
  Cu  Cu0  1  0.19218374  0.37827629  0.00000000  1
  Cu  Cu1  1  0.37827629  0.19218374  0.00000000  1
  Cu  Cu2  1  0.80781626  0.80781626  0.18609255  1
  Cu  Cu3  1  0.62172371  0.62172371  0.81390745  1
  Cu  Cu4  1  0.80781626  0.18609255  0.80781626  1
  Cu  Cu5  1  0.62172371  0.81390745  0.62172371  1
  Cu  Cu6  1  0.37827629  0.00000000  0.19218374  1
  Cu  Cu7  1  0.19218374  0.00000000  0.37827629  1
  Cu  Cu8  1  1.00000000  0.37827629  0.19218374  1
  Cu  Cu9  1  1.00000000  0.19218374  0.37827629  1
  Cu  Cu10  1  0.81390745  0.62172371  0.62172371  1
  Cu  Cu11  1  0.18609255  0.80781626  0.80781626  1
  Cu  Cu12  1  0.67428262  0.40331312  0.00000000  1
  Cu  Cu13  1  0.40331312  0.67428262  0.00000000  1
  Cu  Cu14  1  0.32571738  0.32571738  0.72903050  1
  Cu  Cu15  1  0.59668688  0.59668688  0.27096950  1
  Cu  Cu16  1  0.32571738  0.72903050  0.32571738  1
  Cu  Cu17  1  0.59668688  0.27096950  0.59668688  1
  Cu  Cu18  1  0.40331312  0.00000000  0.67428262  1
  Cu  Cu19  1  0.67428262  0.00000000  0.40331312  1
  Cu  Cu20  1  0.00000000  0.40331312  0.67428262  1
  Cu  Cu21  1  1.00000000  0.67428262  0.40331312  1
  Cu  Cu22  1  0.27096950  0.59668688  0.59668688  1
  Cu  Cu23  1  0.72903050  0.32571738  0.32571738  1
  In  In0  1  1.00000000  0.62180677  0.00000000  1
  In  In1  1  0.62180677  0.00000000  0.00000000  1
  In  In2  1  1.00000000  0.00000000  0.62180677  1
  In  In3  1  0.37819323  0.37819323  0.37819323  1
  In  In4  1  0.00000000  0.00000000  0.00000000  1
