# generated using pymatgen
data_4080_MoSn2
_symmetry_space_group_name_H-M   'I4/mmm'
_cell_length_a   5.24225907
_cell_length_b   5.24225907
_cell_length_c   5.24225907
_cell_angle_alpha   139.76143137
_cell_angle_beta   139.75082865
_cell_angle_gamma   58.22376860
_chemical_formula_structural   MoSn2
_chemical_formula_sum   'Mo1 Sn2'
_cell_volume   59.58388902
loop_
 _symmetry_equiv_pos_site_id
 _symmetry_equiv_pos_as_xyz
  1  'x, y, z'
loop_
 _atom_type_symbol
  Mo
  Sn
loop_
 _atom_site_type_symbol
 _atom_site_label
 _atom_site_symmetry_multiplicity
 _atom_site_fract_x
 _atom_site_fract_y
 _atom_site_fract_z
 _atom_site_occupancy
  Mo  Mo0  1  0.00000000  0.00000000  0.00000000  1
  Sn  Sn0  1  0.65834281  0.65834281  1.00000000  1
  Sn  Sn1  1  0.34165719  0.34165719  1.00000000  1
