# generated using pymatgen
data_4083_Fe6Ta10
_symmetry_space_group_name_H-M   'I4/mcm'
_cell_length_a   7.40069432
_cell_length_b   7.40066162
_cell_length_c   7.40070841
_cell_angle_alpha   96.79917600
_cell_angle_beta   96.79943282
_cell_angle_gamma   139.74851160
_chemical_formula_structural   Fe6Ta10
_chemical_formula_sum   'Fe6 Ta10'
_cell_volume   245.91404610
loop_
 _symmetry_equiv_pos_site_id
 _symmetry_equiv_pos_as_xyz
  1  'x, y, z'
loop_
 _atom_type_symbol
  Fe
  Ta
loop_
 _atom_site_type_symbol
 _atom_site_label
 _atom_site_symmetry_multiplicity
 _atom_site_fract_x
 _atom_site_fract_y
 _atom_site_fract_z
 _atom_site_occupancy
  Fe  Fe0  1  0.74952620  0.74977467  0.99999831  1
  Fe  Fe1  1  0.24952664  0.24977501  0.99999892  1
  Fe  Fe2  1  0.32738490  0.17212456  0.50000025  1
  Fe  Fe3  1  0.67164975  0.82784264  0.50000023  1
  Fe  Fe4  1  0.17135911  0.67172373  0.84426144  1
  Fe  Fe5  1  0.82709939  0.32746390  0.15574188  1
  Ta  Ta0  1  0.24946799  0.75001595  0.50000666  1
  Ta  Ta1  1  0.74947084  0.25001852  0.50000675  1
  Ta  Ta2  1  0.78442927  0.07660807  0.86114790  1
  Ta  Ta3  1  0.21512870  0.92361465  0.13886011  1
  Ta  Ta4  1  0.71503793  0.57672429  0.29186814  1
  Ta  Ta5  1  0.28434585  0.42370522  0.70815579  1
  Ta  Ta6  1  0.57626161  0.28474905  0.86112726  1
  Ta  Ta7  1  0.42327431  0.71545464  0.13883961  1
  Ta  Ta8  1  0.07619561  0.21554927  0.29184956  1
  Ta  Ta9  1  0.92317523  0.78485582  0.70813717  1
