# generated using pymatgen
data_4084_Ta2Sb4
_symmetry_space_group_name_H-M   'Cmcm'
_cell_length_a   7.85267498
_cell_length_b   7.85267498
_cell_length_c   5.36280103
_cell_angle_alpha   90.00000000
_cell_angle_beta   90.00000000
_cell_angle_gamma   153.96037303
_chemical_formula_structural   Ta2Sb4
_chemical_formula_sum   'Sb4 Ta2'
_cell_volume   145.17244623
loop_
 _symmetry_equiv_pos_site_id
 _symmetry_equiv_pos_as_xyz
  1  'x, y, z'
loop_
 _atom_type_symbol
  Sb
  Ta
loop_
 _atom_site_type_symbol
 _atom_site_label
 _atom_site_symmetry_multiplicity
 _atom_site_fract_x
 _atom_site_fract_y
 _atom_site_fract_z
 _atom_site_occupancy
  Sb  Sb0  1  0.04507661  0.95492339  0.00000000  1
  Sb  Sb1  1  0.34246640  0.65753360  0.00000000  1
  Sb  Sb2  1  0.43531138  0.56468862  0.50000000  1
  Sb  Sb3  1  0.73270117  0.26729883  0.50000000  1
  Ta  Ta0  1  0.69015812  0.30984188  0.00000000  1
  Ta  Ta1  1  0.08761966  0.91238034  0.50000000  1
