# generated using pymatgen
data_4087_AuNi3
_symmetry_space_group_name_H-M   'Pmmm'
_cell_length_a   2.69867111
_cell_length_b   3.41182427
_cell_length_c   5.49929970
_cell_angle_alpha   90.00000000
_cell_angle_beta   90.00000000
_cell_angle_gamma   90.00000000
_chemical_formula_structural   AuNi3
_chemical_formula_sum   'Au1 Ni3'
_cell_volume   50.63420576
loop_
 _symmetry_equiv_pos_site_id
 _symmetry_equiv_pos_as_xyz
  1  'x, y, z'
loop_
 _atom_type_symbol
  Au
  Ni
loop_
 _atom_site_type_symbol
 _atom_site_label
 _atom_site_symmetry_multiplicity
 _atom_site_fract_x
 _atom_site_fract_y
 _atom_site_fract_z
 _atom_site_occupancy
  Au  Au0  1  0.00000000  0.00000000  0.00000000  1
  Ni  Ni0  1  0.00000000  0.00000000  0.50000000  1
  Ni  Ni1  1  0.50000000  0.50000000  0.28232664  1
  Ni  Ni2  1  0.50000000  0.50000000  0.71767336  1
