# generated using pymatgen
data_4089_Al3Mo
_symmetry_space_group_name_H-M   'Pmmm'
_cell_length_a   3.29836596
_cell_length_b   3.51076550
_cell_length_c   5.41431171
_cell_angle_alpha   90.00000000
_cell_angle_beta   90.00000000
_cell_angle_gamma   90.00000000
_chemical_formula_structural   Al3Mo
_chemical_formula_sum   'Al3 Mo1'
_cell_volume   62.69658945
loop_
 _symmetry_equiv_pos_site_id
 _symmetry_equiv_pos_as_xyz
  1  'x, y, z'
loop_
 _atom_type_symbol
  Al
  Mo
loop_
 _atom_site_type_symbol
 _atom_site_label
 _atom_site_symmetry_multiplicity
 _atom_site_fract_x
 _atom_site_fract_y
 _atom_site_fract_z
 _atom_site_occupancy
  Al  Al0  1  0.50000000  0.50000000  0.76107034  1
  Al  Al1  1  0.00000000  0.00000000  0.50000000  1
  Al  Al2  1  0.50000000  0.50000000  0.23892966  1
  Mo  Mo0  1  0.00000000  0.00000000  0.00000000  1
