# generated using pymatgen
data_4092_Au6Pb10
_symmetry_space_group_name_H-M   'I4/mcm'
_cell_length_a   8.79306100
_cell_length_b   8.79303351
_cell_length_c   8.79329280
_cell_angle_alpha   97.42461941
_cell_angle_beta   97.42477659
_cell_angle_gamma   137.86333546
_chemical_formula_structural   Au6Pb10
_chemical_formula_sum   'Au6 Pb10'
_cell_volume   425.64088073
loop_
 _symmetry_equiv_pos_site_id
 _symmetry_equiv_pos_as_xyz
  1  'x, y, z'
loop_
 _atom_type_symbol
  Au
  Pb
loop_
 _atom_site_type_symbol
 _atom_site_label
 _atom_site_symmetry_multiplicity
 _atom_site_fract_x
 _atom_site_fract_y
 _atom_site_fract_z
 _atom_site_occupancy
  Au  Au0  1  0.74983475  0.74997323  0.99999973  1
  Au  Au1  1  0.24983501  0.24997349  0.00000027  1
  Au  Au2  1  0.33861347  0.16139853  0.50000000  1
  Au  Au3  1  0.66040571  0.83959433  0.50000000  1
  Au  Au4  1  0.15936011  0.65982846  0.82179505  1
  Au  Au5  1  0.83756506  0.33803341  0.17820495  1
  Pb  Pb0  1  0.24940017  0.74991374  0.50000000  1
  Pb  Pb1  1  0.74940332  0.24991295  0.50000000  1
  Pb  Pb2  1  0.78684935  0.07733944  0.86413456  1
  Pb  Pb3  1  0.21296814  0.92293840  0.13587012  1
  Pb  Pb4  1  0.71286374  0.57738716  0.29022771  1
  Pb  Pb5  1  0.28673683  0.42298113  0.70968802  1
  Pb  Pb6  1  0.57709803  0.28706829  0.86412988  1
  Pb  Pb7  1  0.42271479  0.71320487  0.13586544  1
  Pb  Pb8  1  0.07704881  0.21329311  0.29031198  1
  Pb  Pb9  1  0.92263603  0.78715945  0.70977229  1
