# generated using pymatgen
data_4097_Mn3Sb
_symmetry_space_group_name_H-M   'Immm'
_cell_length_a   4.67510975
_cell_length_b   4.67510975
_cell_length_c   4.67510975
_cell_angle_alpha   135.63354880
_cell_angle_beta   129.85897500
_cell_angle_gamma   69.15859673
_chemical_formula_structural   Mn3Sb
_chemical_formula_sum   'Mn3 Sb1'
_cell_volume   53.84001469
loop_
 _symmetry_equiv_pos_site_id
 _symmetry_equiv_pos_as_xyz
  1  'x, y, z'
loop_
 _atom_type_symbol
  Mn
  Sb
loop_
 _atom_site_type_symbol
 _atom_site_label
 _atom_site_symmetry_multiplicity
 _atom_site_fract_x
 _atom_site_fract_y
 _atom_site_fract_z
 _atom_site_occupancy
  Mn  Mn0  1  0.16235228  0.24508278  0.91726950  1
  Mn  Mn1  1  0.67218671  0.75491722  0.91726950  1
  Mn  Mn2  1  0.91621659  0.50000000  0.41621659  1
  Sb  Sb0  1  0.41591442  0.00000000  0.41591442  1
