# generated using pymatgen
data_40_Al2Rh
_symmetry_space_group_name_H-M   'I4/mmm'
_cell_length_a   4.74797635
_cell_length_b   4.74797635
_cell_length_c   4.74797635
_cell_angle_alpha   140.48705152
_cell_angle_beta   140.48705152
_cell_angle_gamma   57.11452179
_chemical_formula_structural   Al2Rh
_chemical_formula_sum   'Al2 Rh1'
_cell_volume   42.96757747
loop_
 _symmetry_equiv_pos_site_id
 _symmetry_equiv_pos_as_xyz
  1  'x, y, z'
loop_
 _atom_type_symbol
  Al
  Rh
loop_
 _atom_site_type_symbol
 _atom_site_label
 _atom_site_symmetry_multiplicity
 _atom_site_fract_x
 _atom_site_fract_y
 _atom_site_fract_z
 _atom_site_occupancy
  Al  Al0  1  0.15983847  0.15983847  0.00000000  1
  Al  Al1  1  0.84016153  0.84016153  0.00000000  1
  Rh  Rh0  1  0.50000000  0.50000000  0.00000000  1
