# generated using pymatgen
data_4100_Pt4V8
_symmetry_space_group_name_H-M   'Pnma'
_cell_length_a   5.20759018
_cell_length_b   4.39662203
_cell_length_c   7.55141161
_cell_angle_alpha   90.00000000
_cell_angle_beta   90.00000000
_cell_angle_gamma   90.00000000
_chemical_formula_structural   Pt4V8
_chemical_formula_sum   'Pt4 V8'
_cell_volume   172.89565305
loop_
 _symmetry_equiv_pos_site_id
 _symmetry_equiv_pos_as_xyz
  1  'x, y, z'
loop_
 _atom_type_symbol
  Pt
  V
loop_
 _atom_site_type_symbol
 _atom_site_label
 _atom_site_symmetry_multiplicity
 _atom_site_fract_x
 _atom_site_fract_y
 _atom_site_fract_z
 _atom_site_occupancy
  Pt  Pt0  1  0.23253493  0.25000000  0.91593561  1
  Pt  Pt1  1  0.26746507  0.75000000  0.41593561  1
  Pt  Pt2  1  0.73253493  0.25000000  0.58406439  1
  Pt  Pt3  1  0.76746507  0.75000000  0.08406439  1
  V  V0  1  0.00647412  0.25000000  0.24957456  1
  V  V1  1  0.21824578  0.25000000  0.57870252  1
  V  V2  1  0.28175422  0.75000000  0.07870252  1
  V  V3  1  0.49352588  0.75000000  0.74957456  1
  V  V4  1  0.50647412  0.25000000  0.25042544  1
  V  V5  1  0.71824578  0.25000000  0.92129748  1
  V  V6  1  0.78175422  0.75000000  0.42129748  1
  V  V7  1  0.99352588  0.75000000  0.75042544  1
