# generated using pymatgen
data_4107_Mn3W5
_symmetry_space_group_name_H-M   'Cmmm'
_cell_length_a   5.30908734
_cell_length_b   5.30908734
_cell_length_c   4.29752568
_cell_angle_alpha   90.00000000
_cell_angle_beta   90.00000000
_cell_angle_gamma   71.30089827
_chemical_formula_structural   Mn3W5
_chemical_formula_sum   'Mn3 W5'
_cell_volume   114.73790786
loop_
 _symmetry_equiv_pos_site_id
 _symmetry_equiv_pos_as_xyz
  1  'x, y, z'
loop_
 _atom_type_symbol
  Mn
  W
loop_
 _atom_site_type_symbol
 _atom_site_label
 _atom_site_symmetry_multiplicity
 _atom_site_fract_x
 _atom_site_fract_y
 _atom_site_fract_z
 _atom_site_occupancy
  Mn  Mn0  1  0.50000000  0.50000000  0.00000000  1
  Mn  Mn1  1  0.25692559  0.25692559  0.50000000  1
  Mn  Mn2  1  0.74307441  0.74307441  0.50000000  1
  W  W0  1  0.00000000  0.00000000  0.00000000  1
  W  W1  1  0.00000000  0.50000000  0.00000000  1
  W  W2  1  0.50000000  1.00000000  0.00000000  1
  W  W3  1  0.74316616  0.25683384  0.50000000  1
  W  W4  1  0.25683384  0.74316616  0.50000000  1
