# generated using pymatgen
data_4110_Na2Pb2
_symmetry_space_group_name_H-M   'Imma'
_cell_length_a   5.83974959
_cell_length_b   5.83974959
_cell_length_c   5.83974959
_cell_angle_alpha   129.67334177
_cell_angle_beta   127.98542463
_cell_angle_gamma   75.29331721
_chemical_formula_structural   Na2Pb2
_chemical_formula_sum   'Na2 Pb2'
_cell_volume   117.59872256
loop_
 _symmetry_equiv_pos_site_id
 _symmetry_equiv_pos_as_xyz
  1  'x, y, z'
loop_
 _atom_type_symbol
  Na
  Pb
loop_
 _atom_site_type_symbol
 _atom_site_label
 _atom_site_symmetry_multiplicity
 _atom_site_fract_x
 _atom_site_fract_y
 _atom_site_fract_z
 _atom_site_occupancy
  Na  Na0  1  0.62812421  0.87812421  0.25000000  1
  Na  Na1  1  0.37187579  0.12187579  0.75000000  1
  Pb  Pb0  1  0.11845956  0.36845956  0.25000000  1
  Pb  Pb1  1  0.88154044  0.63154044  0.75000000  1
