# generated using pymatgen
data_4111_Ba5V
_symmetry_space_group_name_H-M   'Cm'
_cell_length_a   7.71288539
_cell_length_b   7.71288539
_cell_length_c   10.68116096
_cell_angle_alpha   68.11035464
_cell_angle_beta   68.11035464
_cell_angle_gamma   30.71786618
_chemical_formula_structural   Ba5V
_chemical_formula_sum   'Ba5 V1'
_cell_volume   299.33283566
loop_
 _symmetry_equiv_pos_site_id
 _symmetry_equiv_pos_as_xyz
  1  'x, y, z'
loop_
 _atom_type_symbol
  Ba
  V
loop_
 _atom_site_type_symbol
 _atom_site_label
 _atom_site_symmetry_multiplicity
 _atom_site_fract_x
 _atom_site_fract_y
 _atom_site_fract_z
 _atom_site_occupancy
  Ba  Ba0  1  0.06741854  0.06741854  0.98813671  1
  Ba  Ba1  1  0.69562978  0.69562978  0.61308669  1
  Ba  Ba2  1  0.31919992  0.31919992  0.23538154  1
  Ba  Ba3  1  0.36204181  0.36204181  0.83297929  1
  Ba  Ba4  1  0.02770154  0.02770154  0.38866200  1
  V  V0  1  0.69467508  0.69467508  0.10842043  1
