# generated using pymatgen
data_4113_Cu2Mo2
_symmetry_space_group_name_H-M   'Pmmn'
_cell_length_a   2.56545404
_cell_length_b   4.01090844
_cell_length_c   5.48138276
_cell_angle_alpha   90.00000000
_cell_angle_beta   90.00000000
_cell_angle_gamma   90.00000000
_chemical_formula_structural   Cu2Mo2
_chemical_formula_sum   'Cu2 Mo2'
_cell_volume   56.40233929
loop_
 _symmetry_equiv_pos_site_id
 _symmetry_equiv_pos_as_xyz
  1  'x, y, z'
loop_
 _atom_type_symbol
  Cu
  Mo
loop_
 _atom_site_type_symbol
 _atom_site_label
 _atom_site_symmetry_multiplicity
 _atom_site_fract_x
 _atom_site_fract_y
 _atom_site_fract_z
 _atom_site_occupancy
  Cu  Cu0  1  1.00000000  0.00000000  0.98605546  1
  Cu  Cu1  1  0.50000000  0.50000000  0.76394454  1
  Mo  Mo0  1  0.00000000  0.00000000  0.50531784  1
  Mo  Mo1  1  0.50000000  0.50000000  0.24468216  1
