# generated using pymatgen
data_4120_Cu8Sb4
_symmetry_space_group_name_H-M   'Pa -3'
_cell_length_a   6.19637741
_cell_length_b   6.19637741
_cell_length_c   6.19637741
_cell_angle_alpha   90.00000000
_cell_angle_beta   90.00000000
_cell_angle_gamma   90.00000000
_chemical_formula_structural   Cu8Sb4
_chemical_formula_sum   'Cu8 Sb4'
_cell_volume   237.91048696
loop_
 _symmetry_equiv_pos_site_id
 _symmetry_equiv_pos_as_xyz
  1  'x, y, z'
loop_
 _atom_type_symbol
  Cu
  Sb
loop_
 _atom_site_type_symbol
 _atom_site_label
 _atom_site_symmetry_multiplicity
 _atom_site_fract_x
 _atom_site_fract_y
 _atom_site_fract_z
 _atom_site_occupancy
  Cu  Cu0  1  0.61552137  0.61552137  0.38447863  1
  Cu  Cu1  1  0.38447863  0.38447863  0.61552137  1
  Cu  Cu2  1  0.11552137  0.88447863  0.61552137  1
  Cu  Cu3  1  0.88447863  0.11552137  0.38447863  1
  Cu  Cu4  1  0.38447863  0.11552137  0.11552137  1
  Cu  Cu5  1  0.61552137  0.88447863  0.88447863  1
  Cu  Cu6  1  0.88447863  0.38447863  0.88447863  1
  Cu  Cu7  1  0.11552137  0.61552137  0.11552137  1
  Sb  Sb0  1  0.00000000  0.00000000  0.00000000  1
  Sb  Sb1  1  0.50000000  0.50000000  0.00000000  1
  Sb  Sb2  1  0.50000000  0.00000000  0.50000000  1
  Sb  Sb3  1  0.00000000  0.50000000  0.50000000  1
