# generated using pymatgen
data_4122_Al2Sr6
_symmetry_space_group_name_H-M   'Pmmn'
_cell_length_a   5.93323359
_cell_length_b   6.84599292
_cell_length_c   7.69130189
_cell_angle_alpha   90.00000000
_cell_angle_beta   90.00000000
_cell_angle_gamma   90.00000000
_chemical_formula_structural   Al2Sr6
_chemical_formula_sum   'Al2 Sr6'
_cell_volume   312.41203121
loop_
 _symmetry_equiv_pos_site_id
 _symmetry_equiv_pos_as_xyz
  1  'x, y, z'
loop_
 _atom_type_symbol
  Al
  Sr
loop_
 _atom_site_type_symbol
 _atom_site_label
 _atom_site_symmetry_multiplicity
 _atom_site_fract_x
 _atom_site_fract_y
 _atom_site_fract_z
 _atom_site_occupancy
  Al  Al0  1  0.00000000  0.29283329  0.00000000  1
  Al  Al1  1  0.50000000  0.70716671  0.50000000  1
  Sr  Sr0  1  0.50000000  0.61403998  0.00000000  1
  Sr  Sr1  1  0.00000000  0.38596002  0.50000000  1
  Sr  Sr2  1  0.00000000  0.84049242  0.25210208  1
  Sr  Sr3  1  0.00000000  0.84049242  0.74789792  1
  Sr  Sr4  1  0.50000000  0.15950758  0.75210208  1
  Sr  Sr5  1  0.50000000  0.15950758  0.24789792  1
