# generated using pymatgen
data_4123_Au2Pb4
_symmetry_space_group_name_H-M   'I4_1/amd'
_cell_length_a   11.15625679
_cell_length_b   11.15625679
_cell_length_c   11.15625679
_cell_angle_alpha   159.83927463
_cell_angle_beta   159.83927463
_cell_angle_gamma   28.66265440
_chemical_formula_structural   Au2Pb4
_chemical_formula_sum   'Au2 Pb4'
_cell_volume   164.85692632
loop_
 _symmetry_equiv_pos_site_id
 _symmetry_equiv_pos_as_xyz
  1  'x, y, z'
loop_
 _atom_type_symbol
  Au
  Pb
loop_
 _atom_site_type_symbol
 _atom_site_label
 _atom_site_symmetry_multiplicity
 _atom_site_fract_x
 _atom_site_fract_y
 _atom_site_fract_z
 _atom_site_occupancy
  Au  Au0  1  0.00000000  0.00000000  0.00000000  1
  Au  Au1  1  0.25000000  0.75000000  0.50000000  1
  Pb  Pb0  1  0.56886857  0.56886857  0.00000000  1
  Pb  Pb1  1  0.68113143  0.18113143  0.50000000  1
  Pb  Pb2  1  0.43113143  0.43113143  0.00000000  1
  Pb  Pb3  1  0.81886857  0.31886857  0.50000000  1
