# generated using pymatgen
data_4129_Al5Fe
_symmetry_space_group_name_H-M   'Amm2'
_cell_length_a   7.07711557
_cell_length_b   7.07711557
_cell_length_c   4.38055654
_cell_angle_alpha   90.00000000
_cell_angle_beta   90.00000000
_cell_angle_gamma   156.38153771
_chemical_formula_structural   Al5Fe
_chemical_formula_sum   'Al5 Fe1'
_cell_volume   87.90241821
loop_
 _symmetry_equiv_pos_site_id
 _symmetry_equiv_pos_as_xyz
  1  'x, y, z'
loop_
 _atom_type_symbol
  Al
  Fe
loop_
 _atom_site_type_symbol
 _atom_site_label
 _atom_site_symmetry_multiplicity
 _atom_site_fract_x
 _atom_site_fract_y
 _atom_site_fract_z
 _atom_site_occupancy
  Al  Al0  1  0.00310493  0.99689507  0.00000000  1
  Al  Al1  1  0.33561919  0.66438081  0.00000000  1
  Al  Al2  1  0.66068913  0.33931087  0.00000000  1
  Al  Al3  1  0.45883575  0.54116425  0.50000000  1
  Al  Al4  1  0.76626750  0.23373250  0.50000000  1
  Fe  Fe0  1  0.10881683  0.89118317  0.50000000  1
