# generated using pymatgen
data_4130_Au3Na
_symmetry_space_group_name_H-M   'P4/mmm'
_cell_length_a   2.90053198
_cell_length_b   2.90053198
_cell_length_c   9.03105524
_cell_angle_alpha   90.00000000
_cell_angle_beta   90.00000000
_cell_angle_gamma   90.13412644
_chemical_formula_structural   Au3Na
_chemical_formula_sum   'Au3 Na1'
_cell_volume   75.97883396
loop_
 _symmetry_equiv_pos_site_id
 _symmetry_equiv_pos_as_xyz
  1  'x, y, z'
loop_
 _atom_type_symbol
  Au
  Na
loop_
 _atom_site_type_symbol
 _atom_site_label
 _atom_site_symmetry_multiplicity
 _atom_site_fract_x
 _atom_site_fract_y
 _atom_site_fract_z
 _atom_site_occupancy
  Au  Au0  1  0.00000000  0.00000000  0.99275240  1
  Au  Au1  1  0.50000000  0.50000000  0.75000000  1
  Au  Au2  1  0.00000000  0.00000000  0.50724760  1
  Na  Na0  1  0.50000000  0.50000000  0.25000000  1
