# generated using pymatgen
data_4131_W3Sb
_symmetry_space_group_name_H-M   'Pmm2'
_cell_length_a   3.17807711
_cell_length_b   4.69803323
_cell_length_c   4.65609050
_cell_angle_alpha   90.00000000
_cell_angle_beta   90.00000000
_cell_angle_gamma   90.00000000
_chemical_formula_structural   W3Sb
_chemical_formula_sum   'Sb1 W3'
_cell_volume   69.51874570
loop_
 _symmetry_equiv_pos_site_id
 _symmetry_equiv_pos_as_xyz
  1  'x, y, z'
loop_
 _atom_type_symbol
  Sb
  W
loop_
 _atom_site_type_symbol
 _atom_site_label
 _atom_site_symmetry_multiplicity
 _atom_site_fract_x
 _atom_site_fract_y
 _atom_site_fract_z
 _atom_site_occupancy
  Sb  Sb0  1  0.00000000  0.00000000  0.99149841  1
  W  W0  1  0.50000000  0.00000000  0.50691023  1
  W  W1  1  0.50000000  0.50000000  0.82684241  1
  W  W2  1  0.00000000  0.50000000  0.34141562  1
