# generated using pymatgen
data_4132_AuV5
_symmetry_space_group_name_H-M   'F-43m'
_cell_length_a   4.94282580
_cell_length_b   4.94282580
_cell_length_c   4.94282580
_cell_angle_alpha   60.00000000
_cell_angle_beta   60.00000000
_cell_angle_gamma   60.00000000
_chemical_formula_structural   AuV5
_chemical_formula_sum   'Au1 V5'
_cell_volume   85.39076736
loop_
 _symmetry_equiv_pos_site_id
 _symmetry_equiv_pos_as_xyz
  1  'x, y, z'
loop_
 _atom_type_symbol
  Au
  V
loop_
 _atom_site_type_symbol
 _atom_site_label
 _atom_site_symmetry_multiplicity
 _atom_site_fract_x
 _atom_site_fract_y
 _atom_site_fract_z
 _atom_site_occupancy
  Au  Au0  1  0.00000000  0.00000000  0.00000000  1
  V  V0  1  0.13299568  0.62233477  0.62233477  1
  V  V1  1  0.25000000  0.25000000  0.25000000  1
  V  V2  1  0.62233477  0.13299568  0.62233477  1
  V  V3  1  0.62233477  0.62233477  0.13299568  1
  V  V4  1  0.62233477  0.62233477  0.62233477  1
