# generated using pymatgen
data_4133_Ir6Ta6
_symmetry_space_group_name_H-M   'Pmma'
_cell_length_a   2.87955214
_cell_length_b   4.85852236
_cell_length_c   13.86071848
_cell_angle_alpha   90.00000000
_cell_angle_beta   90.00000000
_cell_angle_gamma   90.00000000
_chemical_formula_structural   Ir6Ta6
_chemical_formula_sum   'Ir6 Ta6'
_cell_volume   193.91655864
loop_
 _symmetry_equiv_pos_site_id
 _symmetry_equiv_pos_as_xyz
  1  'x, y, z'
loop_
 _atom_type_symbol
  Ir
  Ta
loop_
 _atom_site_type_symbol
 _atom_site_label
 _atom_site_symmetry_multiplicity
 _atom_site_fract_x
 _atom_site_fract_y
 _atom_site_fract_z
 _atom_site_occupancy
  Ir  Ir0  1  0.50000000  0.45821459  0.25000000  1
  Ir  Ir1  1  0.50000000  0.54178541  0.75000000  1
  Ir  Ir2  1  0.50000000  0.17606958  0.91801304  1
  Ir  Ir3  1  0.50000000  0.17606958  0.58198696  1
  Ir  Ir4  1  0.50000000  0.82393042  0.08198696  1
  Ir  Ir5  1  0.50000000  0.82393042  0.41801304  1
  Ta  Ta0  1  0.00000000  0.94824152  0.25000000  1
  Ta  Ta1  1  0.00000000  0.05175848  0.75000000  1
  Ta  Ta2  1  0.00000000  0.67458816  0.91435042  1
  Ta  Ta3  1  0.00000000  0.67458816  0.58564958  1
  Ta  Ta4  1  0.00000000  0.32541184  0.08564958  1
  Ta  Ta5  1  0.00000000  0.32541184  0.41435042  1
