# generated using pymatgen
data_4134_Sb4Ge2
_symmetry_space_group_name_H-M   'I4/mcm'
_cell_length_a   5.91807566
_cell_length_b   5.91807566
_cell_length_c   5.91807566
_cell_angle_alpha   103.09317140
_cell_angle_beta   103.09317140
_cell_angle_gamma   123.15662108
_chemical_formula_structural   Sb4Ge2
_chemical_formula_sum   'Ge2 Sb4'
_cell_volume   152.60892935
loop_
 _symmetry_equiv_pos_site_id
 _symmetry_equiv_pos_as_xyz
  1  'x, y, z'
loop_
 _atom_type_symbol
  Ge
  Sb
loop_
 _atom_site_type_symbol
 _atom_site_label
 _atom_site_symmetry_multiplicity
 _atom_site_fract_x
 _atom_site_fract_y
 _atom_site_fract_z
 _atom_site_occupancy
  Ge  Ge0  1  0.75000000  0.75000000  0.00000000  1
  Ge  Ge1  1  0.25000000  0.25000000  0.00000000  1
  Sb  Sb0  1  0.35869867  0.14130133  0.50000000  1
  Sb  Sb1  1  0.64130133  0.85869867  0.50000000  1
  Sb  Sb2  1  0.14130133  0.64130133  0.78260267  1
  Sb  Sb3  1  0.85869867  0.35869867  0.21739733  1
