# generated using pymatgen
data_4138_Na4P2
_symmetry_space_group_name_H-M   'Cmc2_1'
_cell_length_a   5.08470017
_cell_length_b   5.08470017
_cell_length_c   8.20384792
_cell_angle_alpha   89.85173869
_cell_angle_beta   89.85173869
_cell_angle_gamma   35.91709125
_chemical_formula_structural   Na4P2
_chemical_formula_sum   'Na4 P2'
_cell_volume   124.42254750
loop_
 _symmetry_equiv_pos_site_id
 _symmetry_equiv_pos_as_xyz
  1  'x, y, z'
loop_
 _atom_type_symbol
  Na
  P
loop_
 _atom_site_type_symbol
 _atom_site_label
 _atom_site_symmetry_multiplicity
 _atom_site_fract_x
 _atom_site_fract_y
 _atom_site_fract_z
 _atom_site_occupancy
  Na  Na0  1  0.01417596  0.01417596  0.10184183  1
  Na  Na1  1  0.70850593  0.70850593  0.60260021  1
  Na  Na2  1  0.27185199  0.27185199  0.27505521  1
  Na  Na3  1  0.44913481  0.44913481  0.77430639  1
  P  P0  1  0.98614896  0.98614896  0.45634039  1
  P  P1  1  0.73684902  0.73684902  0.95652264  1
