# generated using pymatgen
data_4139_Ag4Ba8
_symmetry_space_group_name_H-M   'Pnma'
_cell_length_a   5.27045676
_cell_length_b   9.03451818
_cell_length_c   11.02033318
_cell_angle_alpha   90.00000000
_cell_angle_beta   90.00000000
_cell_angle_gamma   90.00000000
_chemical_formula_structural   Ag4Ba8
_chemical_formula_sum   'Ag4 Ba8'
_cell_volume   524.74459703
loop_
 _symmetry_equiv_pos_site_id
 _symmetry_equiv_pos_as_xyz
  1  'x, y, z'
loop_
 _atom_type_symbol
  Ag
  Ba
loop_
 _atom_site_type_symbol
 _atom_site_label
 _atom_site_symmetry_multiplicity
 _atom_site_fract_x
 _atom_site_fract_y
 _atom_site_fract_z
 _atom_site_occupancy
  Ag  Ag0  1  0.25000000  0.74770886  0.38232639  1
  Ag  Ag1  1  0.75000000  0.75229114  0.88232639  1
  Ag  Ag2  1  0.25000000  0.24770886  0.11767361  1
  Ag  Ag3  1  0.75000000  0.25229114  0.61767361  1
  Ba  Ba0  1  0.25000000  0.02190512  0.83134766  1
  Ba  Ba1  1  0.75000000  0.47809488  0.33134766  1
  Ba  Ba2  1  0.25000000  0.52190512  0.66865234  1
  Ba  Ba3  1  0.75000000  0.97809488  0.16865234  1
  Ba  Ba4  1  0.25000000  0.14484994  0.43026820  1
  Ba  Ba5  1  0.75000000  0.35515006  0.93026820  1
  Ba  Ba6  1  0.25000000  0.64484994  0.06973180  1
  Ba  Ba7  1  0.75000000  0.85515006  0.56973180  1
