# generated using pymatgen
data_4143_Cu8In16
_symmetry_space_group_name_H-M   'Fd -3 m'
_cell_length_a   8.96797501
_cell_length_b   8.96797501
_cell_length_c   8.96797501
_cell_angle_alpha   60.00000000
_cell_angle_beta   60.00000000
_cell_angle_gamma   60.00000000
_chemical_formula_structural   Cu8In16
_chemical_formula_sum   'Cu8 In16'
_cell_volume   509.99764387
loop_
 _symmetry_equiv_pos_site_id
 _symmetry_equiv_pos_as_xyz
  1  'x, y, z'
loop_
 _atom_type_symbol
  Cu
  In
loop_
 _atom_site_type_symbol
 _atom_site_label
 _atom_site_symmetry_multiplicity
 _atom_site_fract_x
 _atom_site_fract_y
 _atom_site_fract_z
 _atom_site_occupancy
  Cu  Cu0  1  0.70256657  0.70256657  0.89230029  1
  Cu  Cu1  1  0.70256657  0.70256657  0.20256657  1
  Cu  Cu2  1  0.70256657  0.39230029  0.20256657  1
  Cu  Cu3  1  0.39230029  0.70256657  0.20256657  1
  Cu  Cu4  1  0.29743343  0.29743343  0.10769971  1
  Cu  Cu5  1  0.29743343  0.29743343  0.79743343  1
  Cu  Cu6  1  0.29743343  0.60769971  0.79743343  1
  Cu  Cu7  1  0.60769971  0.29743343  0.79743343  1
  In  In0  1  0.00000000  0.50000000  0.00000000  1
  In  In1  1  0.50000000  0.00000000  0.00000000  1
  In  In2  1  0.50000000  0.50000000  0.00000000  1
  In  In3  1  0.50000000  0.50000000  0.50000000  1
  In  In4  1  0.93651458  0.93651458  0.81348542  1
  In  In5  1  0.93651458  0.31348542  0.81348542  1
  In  In6  1  0.31348542  0.93651458  0.81348542  1
  In  In7  1  0.93651458  0.31348542  0.43651458  1
  In  In8  1  0.31348542  0.93651458  0.43651458  1
  In  In9  1  0.31348542  0.31348542  0.43651458  1
  In  In10  1  0.06348542  0.06348542  0.18651458  1
  In  In11  1  0.06348542  0.68651458  0.18651458  1
  In  In12  1  0.68651458  0.06348542  0.18651458  1
  In  In13  1  0.06348542  0.68651458  0.56348542  1
  In  In14  1  0.68651458  0.06348542  0.56348542  1
  In  In15  1  0.68651458  0.68651458  0.56348542  1
