# generated using pymatgen
data_4149_Ba4Ni2
_symmetry_space_group_name_H-M   'Cmcm'
_cell_length_a   8.00410874
_cell_length_b   8.00410874
_cell_length_c   5.51599981
_cell_angle_alpha   90.00000000
_cell_angle_beta   90.00000000
_cell_angle_gamma   139.83457410
_chemical_formula_structural   Ba4Ni2
_chemical_formula_sum   'Ba4 Ni2'
_cell_volume   227.93324673
loop_
 _symmetry_equiv_pos_site_id
 _symmetry_equiv_pos_as_xyz
  1  'x, y, z'
loop_
 _atom_type_symbol
  Ba
  Ni
loop_
 _atom_site_type_symbol
 _atom_site_label
 _atom_site_symmetry_multiplicity
 _atom_site_fract_x
 _atom_site_fract_y
 _atom_site_fract_z
 _atom_site_occupancy
  Ba  Ba0  1  0.62686323  0.86943586  0.25000000  1
  Ba  Ba1  1  0.37313677  0.13056414  0.75000000  1
  Ba  Ba2  1  0.86943586  0.62686323  0.25000000  1
  Ba  Ba3  1  0.13056414  0.37313677  0.75000000  1
  Ni  Ni0  1  0.23751136  0.23751136  0.25000000  1
  Ni  Ni1  1  0.76248864  0.76248864  0.75000000  1
