# generated using pymatgen
data_4150_Mo2Ni6
_symmetry_space_group_name_H-M   'Pmmn'
_cell_length_a   5.01663000
_cell_length_b   4.22064100
_cell_length_c   4.45143600
_cell_angle_alpha   90.00000000
_cell_angle_beta   90.00000000
_cell_angle_gamma   90.00000000
_chemical_formula_structural   Mo2Ni6
_chemical_formula_sum   'Mo2 Ni6'
_cell_volume   94.25200945
loop_
 _symmetry_equiv_pos_site_id
 _symmetry_equiv_pos_as_xyz
  1  'x, y, z'
loop_
 _atom_type_symbol
  Mo
  Ni
loop_
 _atom_site_type_symbol
 _atom_site_label
 _atom_site_symmetry_multiplicity
 _atom_site_fract_x
 _atom_site_fract_y
 _atom_site_fract_z
 _atom_site_occupancy
  Mo  Mo0  1  0.49999905  0.49999983  0.34529756  1
  Mo  Mo1  1  0.00000000  0.00000000  0.65470333  1
  Ni  Ni0  1  0.25126631  0.00000000  0.15912169  1
  Ni  Ni1  1  0.74873179  0.00000000  0.15912169  1
  Ni  Ni2  1  0.00000000  0.49999983  0.33535021  1
  Ni  Ni3  1  0.49999905  0.00000000  0.66464844  1
  Ni  Ni4  1  0.24873274  0.49999983  0.84087696  1
  Ni  Ni5  1  0.75126736  0.49999983  0.84087696  1
