# generated using pymatgen
data_4152_MoP5
_symmetry_space_group_name_H-M   'P4/mmm'
_cell_length_a   3.19390313
_cell_length_b   3.19390313
_cell_length_c   9.92769183
_cell_angle_alpha   90.00000000
_cell_angle_beta   90.00000000
_cell_angle_gamma   90.00000000
_chemical_formula_structural   MoP5
_chemical_formula_sum   'Mo1 P5'
_cell_volume   101.27255515
loop_
 _symmetry_equiv_pos_site_id
 _symmetry_equiv_pos_as_xyz
  1  'x, y, z'
loop_
 _atom_type_symbol
  Mo
  P
loop_
 _atom_site_type_symbol
 _atom_site_label
 _atom_site_symmetry_multiplicity
 _atom_site_fract_x
 _atom_site_fract_y
 _atom_site_fract_z
 _atom_site_occupancy
  Mo  Mo0  1  0.50000000  0.50000000  0.00000000  1
  P  P0  1  0.00000000  0.00000000  0.87686220  1
  P  P1  1  0.00000000  0.00000000  0.12313780  1
  P  P2  1  0.50000000  0.50000000  0.61211137  1
  P  P3  1  0.50000000  0.50000000  0.38788863  1
  P  P4  1  0.00000000  0.00000000  0.50000000  1
