# generated using pymatgen
data_4153_Mo2Rh2
_symmetry_space_group_name_H-M   'P4/nmm'
_cell_length_a   2.74943204
_cell_length_b   2.74943204
_cell_length_c   7.97069536
_cell_angle_alpha   90.00000000
_cell_angle_beta   90.00000000
_cell_angle_gamma   90.00000000
_chemical_formula_structural   Mo2Rh2
_chemical_formula_sum   'Mo2 Rh2'
_cell_volume   60.25348753
loop_
 _symmetry_equiv_pos_site_id
 _symmetry_equiv_pos_as_xyz
  1  'x, y, z'
loop_
 _atom_type_symbol
  Mo
  Rh
loop_
 _atom_site_type_symbol
 _atom_site_label
 _atom_site_symmetry_multiplicity
 _atom_site_fract_x
 _atom_site_fract_y
 _atom_site_fract_z
 _atom_site_occupancy
  Mo  Mo0  1  0.25000000  0.25000000  0.63619238  1
  Mo  Mo1  1  0.75000000  0.75000000  0.36380762  1
  Rh  Rh0  1  0.25000000  0.25000000  0.12777449  1
  Rh  Rh1  1  0.75000000  0.75000000  0.87222551  1
