# generated using pymatgen
data_4154_Cu2Ni2
_symmetry_space_group_name_H-M   'Pmmn'
_cell_length_a   2.50111216
_cell_length_b   3.56479713
_cell_length_c   5.03471802
_cell_angle_alpha   90.00000000
_cell_angle_beta   90.00000000
_cell_angle_gamma   90.00000000
_chemical_formula_structural   Cu2Ni2
_chemical_formula_sum   'Cu2 Ni2'
_cell_volume   44.88933163
loop_
 _symmetry_equiv_pos_site_id
 _symmetry_equiv_pos_as_xyz
  1  'x, y, z'
loop_
 _atom_type_symbol
  Cu
  Ni
loop_
 _atom_site_type_symbol
 _atom_site_label
 _atom_site_symmetry_multiplicity
 _atom_site_fract_x
 _atom_site_fract_y
 _atom_site_fract_z
 _atom_site_occupancy
  Cu  Cu0  1  0.00000000  0.00000000  0.00248737  1
  Cu  Cu1  1  0.50000000  0.50000000  0.74751263  1
  Ni  Ni0  1  0.00000000  0.00000000  0.49403487  1
  Ni  Ni1  1  0.50000000  0.50000000  0.25596513  1
