# generated using pymatgen
data_4156_Fe2Ga2
_symmetry_space_group_name_H-M   'Cmcm'
_cell_length_a   5.00046147
_cell_length_b   5.00046147
_cell_length_c   4.13698436
_cell_angle_alpha   90.00000000
_cell_angle_beta   90.00000000
_cell_angle_gamma   149.29823460
_chemical_formula_structural   Fe2Ga2
_chemical_formula_sum   'Fe2 Ga2'
_cell_volume   52.81518951
loop_
 _symmetry_equiv_pos_site_id
 _symmetry_equiv_pos_as_xyz
  1  'x, y, z'
loop_
 _atom_type_symbol
  Fe
  Ga
loop_
 _atom_site_type_symbol
 _atom_site_label
 _atom_site_symmetry_multiplicity
 _atom_site_fract_x
 _atom_site_fract_y
 _atom_site_fract_z
 _atom_site_occupancy
  Fe  Fe0  1  0.83492151  0.16507849  0.75000000  1
  Fe  Fe1  1  0.16507849  0.83492151  0.25000000  1
  Ga  Ga0  1  0.58294279  0.41705721  0.75000000  1
  Ga  Ga1  1  0.41705721  0.58294279  0.25000000  1
