# generated using pymatgen
data_4159_In4Mn2
_symmetry_space_group_name_H-M   'Pnnm'
_cell_length_a   3.12283296
_cell_length_b   6.38081756
_cell_length_c   7.47285772
_cell_angle_alpha   90.00000000
_cell_angle_beta   90.00000000
_cell_angle_gamma   90.00000000
_chemical_formula_structural   In4Mn2
_chemical_formula_sum   'In4 Mn2'
_cell_volume   148.90586217
loop_
 _symmetry_equiv_pos_site_id
 _symmetry_equiv_pos_as_xyz
  1  'x, y, z'
loop_
 _atom_type_symbol
  In
  Mn
loop_
 _atom_site_type_symbol
 _atom_site_label
 _atom_site_symmetry_multiplicity
 _atom_site_fract_x
 _atom_site_fract_y
 _atom_site_fract_z
 _atom_site_occupancy
  In  In0  1  0.00000000  0.22556576  0.69667740  1
  In  In1  1  0.00000000  0.77443424  0.30332260  1
  In  In2  1  0.50000000  0.72556576  0.80332260  1
  In  In3  1  0.50000000  0.27443424  0.19667740  1
  Mn  Mn0  1  0.00000000  0.00000000  0.00000000  1
  Mn  Mn1  1  0.50000000  0.50000000  0.50000000  1
