# generated using pymatgen
data_4161_AuGe
_symmetry_space_group_name_H-M   'P-6m2'
_cell_length_a   2.98904419
_cell_length_b   2.98900118
_cell_length_c   4.87263092
_cell_angle_alpha   90.00000000
_cell_angle_beta   90.00000000
_cell_angle_gamma   120.00046543
_chemical_formula_structural   AuGe
_chemical_formula_sum   'Au1 Ge1'
_cell_volume   37.70079723
loop_
 _symmetry_equiv_pos_site_id
 _symmetry_equiv_pos_as_xyz
  1  'x, y, z'
loop_
 _atom_type_symbol
  Au
  Ge
loop_
 _atom_site_type_symbol
 _atom_site_label
 _atom_site_symmetry_multiplicity
 _atom_site_fract_x
 _atom_site_fract_y
 _atom_site_fract_z
 _atom_site_occupancy
  Au  Au0  1  0.66666703  0.33333307  0.75000000  1
  Ge  Ge0  1  0.33333297  0.66666693  0.25000000  1
