# generated using pymatgen
data_4167_Mn3Ta
_symmetry_space_group_name_H-M   'P4/mmm'
_cell_length_a   2.75966050
_cell_length_b   2.75966050
_cell_length_c   6.84249013
_cell_angle_alpha   90.00000000
_cell_angle_beta   90.00000000
_cell_angle_gamma   90.00000000
_chemical_formula_structural   Mn3Ta
_chemical_formula_sum   'Mn3 Ta1'
_cell_volume   52.11053033
loop_
 _symmetry_equiv_pos_site_id
 _symmetry_equiv_pos_as_xyz
  1  'x, y, z'
loop_
 _atom_type_symbol
  Mn
  Ta
loop_
 _atom_site_type_symbol
 _atom_site_label
 _atom_site_symmetry_multiplicity
 _atom_site_fract_x
 _atom_site_fract_y
 _atom_site_fract_z
 _atom_site_occupancy
  Mn  Mn0  1  0.00000000  0.00000000  0.96263494  1
  Mn  Mn1  1  0.00000000  0.00000000  0.53736506  1
  Mn  Mn2  1  0.50000000  0.50000000  0.75000000  1
  Ta  Ta0  1  0.50000000  0.50000000  0.25000000  1
