# generated using pymatgen
data_4172_Al5Mn24
_symmetry_space_group_name_H-M   'I-43m'
_cell_length_a   7.53475343
_cell_length_b   7.53475343
_cell_length_c   7.53475343
_cell_angle_alpha   109.47122063
_cell_angle_beta   109.47122063
_cell_angle_gamma   109.47122063
_chemical_formula_structural   Al5Mn24
_chemical_formula_sum   'Al5 Mn24'
_cell_volume   329.29508120
loop_
 _symmetry_equiv_pos_site_id
 _symmetry_equiv_pos_as_xyz
  1  'x, y, z'
loop_
 _atom_type_symbol
  Al
  Mn
loop_
 _atom_site_type_symbol
 _atom_site_label
 _atom_site_symmetry_multiplicity
 _atom_site_fract_x
 _atom_site_fract_y
 _atom_site_fract_z
 _atom_site_occupancy
  Al  Al0  1  0.00000000  0.00000000  0.36918379  1
  Al  Al1  1  0.00000000  0.36918379  0.00000000  1
  Al  Al2  1  0.63081621  0.63081621  0.63081621  1
  Al  Al3  1  0.36918379  0.00000000  0.00000000  1
  Al  Al4  1  0.00000000  0.00000000  0.00000000  1
  Mn  Mn0  1  1.00000000  0.80653906  0.62777600  1
  Mn  Mn1  1  0.00000000  0.62777600  0.80653906  1
  Mn  Mn2  1  0.17876307  0.37222400  0.37222400  1
  Mn  Mn3  1  0.82123693  0.19346094  0.19346094  1
  Mn  Mn4  1  0.80653906  0.00000000  0.62777600  1
  Mn  Mn5  1  0.62777600  0.00000000  0.80653906  1
  Mn  Mn6  1  0.19346094  0.82123693  0.19346094  1
  Mn  Mn7  1  0.37222400  0.17876307  0.37222400  1
  Mn  Mn8  1  0.19346094  0.19346094  0.82123693  1
  Mn  Mn9  1  0.37222400  0.37222400  0.17876307  1
  Mn  Mn10  1  0.62777600  0.80653906  0.00000000  1
  Mn  Mn11  1  0.80653906  0.62777600  0.00000000  1
  Mn  Mn12  1  1.00000000  0.32731463  0.61480892  1
  Mn  Mn13  1  0.00000000  0.61480892  0.32731463  1
  Mn  Mn14  1  0.71250571  0.38519108  0.38519108  1
  Mn  Mn15  1  0.28749429  0.67268537  0.67268537  1
  Mn  Mn16  1  0.32731463  0.00000000  0.61480892  1
  Mn  Mn17  1  0.61480892  0.00000000  0.32731463  1
  Mn  Mn18  1  0.67268537  0.28749429  0.67268537  1
  Mn  Mn19  1  0.38519108  0.71250571  0.38519108  1
  Mn  Mn20  1  0.67268537  0.67268537  0.28749429  1
  Mn  Mn21  1  0.38519108  0.38519108  0.71250571  1
  Mn  Mn22  1  0.61480892  0.32731463  0.00000000  1
  Mn  Mn23  1  0.32731463  0.61480892  0.00000000  1
