# generated using pymatgen
data_4173_PdP8
_symmetry_space_group_name_H-M   'I4/mmm'
_cell_length_a   5.74632211
_cell_length_b   5.74632211
_cell_length_c   5.74632211
_cell_angle_alpha   101.98707202
_cell_angle_beta   101.98707202
_cell_angle_gamma   125.77601082
_chemical_formula_structural   PdP8
_chemical_formula_sum   'P8 Pd1'
_cell_volume   137.02610542
loop_
 _symmetry_equiv_pos_site_id
 _symmetry_equiv_pos_as_xyz
  1  'x, y, z'
loop_
 _atom_type_symbol
  P
  Pd
loop_
 _atom_site_type_symbol
 _atom_site_label
 _atom_site_symmetry_multiplicity
 _atom_site_fract_x
 _atom_site_fract_y
 _atom_site_fract_z
 _atom_site_occupancy
  P  P0  1  0.34008622  0.65991378  0.00000000  1
  P  P1  1  0.65991378  0.34008622  0.00000000  1
  P  P2  1  1.00000000  0.34060491  0.34060491  1
  P  P3  1  0.65991378  0.65991378  0.31982757  1
  P  P4  1  0.34060491  0.00000000  0.34060491  1
  P  P5  1  0.34008622  0.34008622  0.68017243  1
  P  P6  1  1.00000000  0.65939509  0.65939509  1
  P  P7  1  0.65939509  0.00000000  0.65939509  1
  Pd  Pd0  1  0.00000000  0.00000000  0.00000000  1
