# generated using pymatgen
data_4174_Fe8Ge16
_symmetry_space_group_name_H-M   'Cmce'
_cell_length_a   6.65940357
_cell_length_b   6.65940357
_cell_length_c   8.25491783
_cell_angle_alpha   90.00000000
_cell_angle_beta   90.00000000
_cell_angle_gamma   104.87950699
_chemical_formula_structural   Fe8Ge16
_chemical_formula_sum   'Fe8 Ge16'
_cell_volume   353.81064634
loop_
 _symmetry_equiv_pos_site_id
 _symmetry_equiv_pos_as_xyz
  1  'x, y, z'
loop_
 _atom_type_symbol
  Fe
  Ge
loop_
 _atom_site_type_symbol
 _atom_site_label
 _atom_site_symmetry_multiplicity
 _atom_site_fract_x
 _atom_site_fract_y
 _atom_site_fract_z
 _atom_site_occupancy
  Fe  Fe0  1  0.78127977  0.21872023  0.00000000  1
  Fe  Fe1  1  0.71872023  0.28127977  0.50000000  1
  Fe  Fe2  1  0.21872023  0.78127977  0.00000000  1
  Fe  Fe3  1  0.28127977  0.71872023  0.50000000  1
  Fe  Fe4  1  0.80313665  0.80313665  0.81158050  1
  Fe  Fe5  1  0.69686335  0.69686335  0.31158050  1
  Fe  Fe6  1  0.30313665  0.30313665  0.68841950  1
  Fe  Fe7  1  0.19686335  0.19686335  0.18841950  1
  Ge  Ge0  1  0.14452202  0.39886620  0.95660108  1
  Ge  Ge1  1  0.35547798  0.10113380  0.45660108  1
  Ge  Ge2  1  0.89886620  0.64452202  0.54339892  1
  Ge  Ge3  1  0.60113380  0.85547798  0.04339892  1
  Ge  Ge4  1  0.85547798  0.60113380  0.04339892  1
  Ge  Ge5  1  0.64452202  0.89886620  0.54339892  1
  Ge  Ge6  1  0.10113380  0.35547798  0.45660108  1
  Ge  Ge7  1  0.39886620  0.14452202  0.95660108  1
  Ge  Ge8  1  0.66550952  0.41293929  0.76855479  1
  Ge  Ge9  1  0.83449048  0.08706071  0.26855479  1
  Ge  Ge10  1  0.91293929  0.16550952  0.73144521  1
  Ge  Ge11  1  0.58706071  0.33449048  0.23144521  1
  Ge  Ge12  1  0.33449048  0.58706071  0.23144521  1
  Ge  Ge13  1  0.16550952  0.91293929  0.73144521  1
  Ge  Ge14  1  0.08706071  0.83449048  0.26855479  1
  Ge  Ge15  1  0.41293929  0.66550952  0.76855479  1
