# generated using pymatgen
data_4178_Ca2Sb4
_symmetry_space_group_name_H-M   'Cmcm'
_cell_length_a   5.78724359
_cell_length_b   5.78724359
_cell_length_c   5.94767656
_cell_angle_alpha   90.00000000
_cell_angle_beta   90.00000000
_cell_angle_gamma   118.09680072
_chemical_formula_structural   Ca2Sb4
_chemical_formula_sum   'Ca2 Sb4'
_cell_volume   175.72553137
loop_
 _symmetry_equiv_pos_site_id
 _symmetry_equiv_pos_as_xyz
  1  'x, y, z'
loop_
 _atom_type_symbol
  Ca
  Sb
loop_
 _atom_site_type_symbol
 _atom_site_label
 _atom_site_symmetry_multiplicity
 _atom_site_fract_x
 _atom_site_fract_y
 _atom_site_fract_z
 _atom_site_occupancy
  Ca  Ca0  1  0.25553362  0.25553362  0.25000000  1
  Ca  Ca1  1  0.74446638  0.74446638  0.75000000  1
  Sb  Sb0  1  0.60922391  0.90175383  0.25000000  1
  Sb  Sb1  1  0.39077609  0.09824617  0.75000000  1
  Sb  Sb2  1  0.90175383  0.60922391  0.25000000  1
  Sb  Sb3  1  0.09824617  0.39077609  0.75000000  1
