# generated using pymatgen
data_4180_Rh2Sb2
_symmetry_space_group_name_H-M   'Cmme'
_cell_length_a   3.20724781
_cell_length_b   3.20724781
_cell_length_c   7.87891332
_cell_angle_alpha   90.00000000
_cell_angle_beta   90.00000000
_cell_angle_gamma   91.02546910
_chemical_formula_structural   Rh2Sb2
_chemical_formula_sum   'Rh2 Sb2'
_cell_volume   81.03297682
loop_
 _symmetry_equiv_pos_site_id
 _symmetry_equiv_pos_as_xyz
  1  'x, y, z'
loop_
 _atom_type_symbol
  Rh
  Sb
loop_
 _atom_site_type_symbol
 _atom_site_label
 _atom_site_symmetry_multiplicity
 _atom_site_fract_x
 _atom_site_fract_y
 _atom_site_fract_z
 _atom_site_occupancy
  Rh  Rh0  1  0.00000000  0.00000000  0.99024288  1
  Rh  Rh1  1  0.50000000  0.50000000  0.75975712  1
  Sb  Sb0  1  0.00000000  0.00000000  0.57524098  1
  Sb  Sb1  1  0.50000000  0.50000000  0.17475902  1
