# generated using pymatgen
data_4185_Au4V16
_symmetry_space_group_name_H-M   'I23'
_cell_length_a   7.27447788
_cell_length_b   7.27447788
_cell_length_c   7.27447788
_cell_angle_alpha   109.47122063
_cell_angle_beta   109.47122063
_cell_angle_gamma   109.47122063
_chemical_formula_structural   Au4V16
_chemical_formula_sum   'Au4 V16'
_cell_volume   296.33543847
loop_
 _symmetry_equiv_pos_site_id
 _symmetry_equiv_pos_as_xyz
  1  'x, y, z'
loop_
 _atom_type_symbol
  Au
  V
loop_
 _atom_site_type_symbol
 _atom_site_label
 _atom_site_symmetry_multiplicity
 _atom_site_fract_x
 _atom_site_fract_y
 _atom_site_fract_z
 _atom_site_occupancy
  Au  Au0  1  0.58560302  0.00000000  0.00000000  1
  Au  Au1  1  0.41439698  0.41439698  0.41439698  1
  Au  Au2  1  1.00000000  0.00000000  0.58560302  1
  Au  Au3  1  1.00000000  0.58560302  0.00000000  1
  V  V0  1  0.24061257  0.00000000  0.00000000  1
  V  V1  1  0.75938743  0.75938743  0.75938743  1
  V  V2  1  1.00000000  1.00000000  0.24061257  1
  V  V3  1  0.00000000  0.24061257  0.00000000  1
  V  V4  1  0.34504266  0.34504266  0.00000000  1
  V  V5  1  0.65495734  0.65495734  0.00000000  1
  V  V6  1  0.34504266  0.00000000  0.34504266  1
  V  V7  1  0.65495734  0.00000000  0.65495734  1
  V  V8  1  1.00000000  0.65495734  0.65495734  1
  V  V9  1  1.00000000  0.34504266  0.34504266  1
  V  V10  1  0.75595797  0.25595797  0.50000000  1
  V  V11  1  0.24404203  0.74404203  0.50000000  1
  V  V12  1  0.25595797  0.50000000  0.75595797  1
  V  V13  1  0.74404203  0.50000000  0.24404203  1
  V  V14  1  0.50000000  0.24404203  0.74404203  1
  V  V15  1  0.50000000  0.75595797  0.25595797  1
