# generated using pymatgen
data_4186_Pd3Rb
_symmetry_space_group_name_H-M   'P4/mmm'
_cell_length_a   3.27768977
_cell_length_b   3.27768977
_cell_length_c   8.07145620
_cell_angle_alpha   90.00000000
_cell_angle_beta   90.00000000
_cell_angle_gamma   90.00000000
_chemical_formula_structural   Pd3Rb
_chemical_formula_sum   'Pd3 Rb1'
_cell_volume   86.71367344
loop_
 _symmetry_equiv_pos_site_id
 _symmetry_equiv_pos_as_xyz
  1  'x, y, z'
loop_
 _atom_type_symbol
  Pd
  Rb
loop_
 _atom_site_type_symbol
 _atom_site_label
 _atom_site_symmetry_multiplicity
 _atom_site_fract_x
 _atom_site_fract_y
 _atom_site_fract_z
 _atom_site_occupancy
  Pd  Pd0  1  0.00000000  0.00000000  0.50000000  1
  Pd  Pd1  1  0.50000000  0.50000000  0.32152722  1
  Pd  Pd2  1  0.50000000  0.50000000  0.67847278  1
  Rb  Rb0  1  0.00000000  0.00000000  0.00000000  1
