# generated using pymatgen
data_4187_Na4Pb2
_symmetry_space_group_name_H-M   'Cmcm'
_cell_length_a   9.25764177
_cell_length_b   9.25764177
_cell_length_c   5.54665867
_cell_angle_alpha   90.00000000
_cell_angle_beta   90.00000000
_cell_angle_gamma   158.69742093
_chemical_formula_structural   Na4Pb2
_chemical_formula_sum   'Na4 Pb2'
_cell_volume   172.69883788
loop_
 _symmetry_equiv_pos_site_id
 _symmetry_equiv_pos_as_xyz
  1  'x, y, z'
loop_
 _atom_type_symbol
  Na
  Pb
loop_
 _atom_site_type_symbol
 _atom_site_label
 _atom_site_symmetry_multiplicity
 _atom_site_fract_x
 _atom_site_fract_y
 _atom_site_fract_z
 _atom_site_occupancy
  Na  Na0  1  0.00129044  0.99870956  0.00000000  1
  Na  Na1  1  0.67248231  0.32751769  0.00000000  1
  Na  Na2  1  0.44315400  0.55684600  0.50000000  1
  Na  Na3  1  0.77196214  0.22803786  0.50000000  1
  Pb  Pb0  1  0.33822130  0.66177870  0.00000000  1
  Pb  Pb1  1  0.10622314  0.89377686  0.50000000  1
