# generated using pymatgen
data_4188_Mn4Sb8
_symmetry_space_group_name_H-M   'Pa -3'
_cell_length_a   6.36301544
_cell_length_b   6.36301544
_cell_length_c   6.36301544
_cell_angle_alpha   90.00000000
_cell_angle_beta   90.00000000
_cell_angle_gamma   90.00000000
_chemical_formula_structural   Mn4Sb8
_chemical_formula_sum   'Mn4 Sb8'
_cell_volume   257.62554955
loop_
 _symmetry_equiv_pos_site_id
 _symmetry_equiv_pos_as_xyz
  1  'x, y, z'
loop_
 _atom_type_symbol
  Mn
  Sb
loop_
 _atom_site_type_symbol
 _atom_site_label
 _atom_site_symmetry_multiplicity
 _atom_site_fract_x
 _atom_site_fract_y
 _atom_site_fract_z
 _atom_site_occupancy
  Mn  Mn0  1  0.00000000  0.00000000  0.00000000  1
  Mn  Mn1  1  0.50000000  0.50000000  0.00000000  1
  Mn  Mn2  1  0.50000000  0.00000000  0.50000000  1
  Mn  Mn3  1  0.00000000  0.50000000  0.50000000  1
  Sb  Sb0  1  0.64284064  0.64284064  0.35715936  1
  Sb  Sb1  1  0.35715936  0.35715936  0.64284064  1
  Sb  Sb2  1  0.14284064  0.85715936  0.64284064  1
  Sb  Sb3  1  0.85715936  0.14284064  0.35715936  1
  Sb  Sb4  1  0.35715936  0.14284064  0.14284064  1
  Sb  Sb5  1  0.64284064  0.85715936  0.85715936  1
  Sb  Sb6  1  0.85715936  0.35715936  0.85715936  1
  Sb  Sb7  1  0.14284064  0.64284064  0.14284064  1
