# generated using pymatgen
data_4196_Ni2Sr2
_symmetry_space_group_name_H-M   'Pmma'
_cell_length_a   5.09295709
_cell_length_b   3.64567061
_cell_length_c   6.33381363
_cell_angle_alpha   54.28919229
_cell_angle_beta   90.00000000
_cell_angle_gamma   90.00000000
_chemical_formula_structural   Ni2Sr2
_chemical_formula_sum   'Ni2 Sr2'
_cell_volume   95.48926439
loop_
 _symmetry_equiv_pos_site_id
 _symmetry_equiv_pos_as_xyz
  1  'x, y, z'
loop_
 _atom_type_symbol
  Ni
  Sr
loop_
 _atom_site_type_symbol
 _atom_site_label
 _atom_site_symmetry_multiplicity
 _atom_site_fract_x
 _atom_site_fract_y
 _atom_site_fract_z
 _atom_site_occupancy
  Ni  Ni0  1  0.75000000  0.22077892  0.27973898  1
  Ni  Ni1  1  0.25000000  0.77922108  0.72026102  1
  Sr  Sr0  1  0.75000000  0.22884700  0.75965496  1
  Sr  Sr1  1  0.25000000  0.77115300  0.24034504  1
