# generated using pymatgen
data_4202_V2Br2
_symmetry_space_group_name_H-M   'Imma'
_cell_length_a   6.73743453
_cell_length_b   6.73743453
_cell_length_c   6.73743453
_cell_angle_alpha   153.39517970
_cell_angle_beta   143.89077405
_cell_angle_gamma   45.41138441
_chemical_formula_structural   V2Br2
_chemical_formula_sum   'Br2 V2'
_cell_volume   80.47542398
loop_
 _symmetry_equiv_pos_site_id
 _symmetry_equiv_pos_as_xyz
  1  'x, y, z'
loop_
 _atom_type_symbol
  Br
  V
loop_
 _atom_site_type_symbol
 _atom_site_label
 _atom_site_symmetry_multiplicity
 _atom_site_fract_x
 _atom_site_fract_y
 _atom_site_fract_z
 _atom_site_occupancy
  Br  Br0  1  0.01342108  0.01342108  0.00000000  1
  Br  Br1  1  0.73657892  0.23657892  0.50000000  1
  V  V0  1  0.44603604  0.44603604  1.00000000  1
  V  V1  1  0.30396396  0.80396396  0.50000000  1
