# generated using pymatgen
data_4203_V4As2
_symmetry_space_group_name_H-M   'Cmcm'
_cell_length_a   6.29463855
_cell_length_b   6.29463855
_cell_length_c   4.16281990
_cell_angle_alpha   90.00000000
_cell_angle_beta   90.00000000
_cell_angle_gamma   149.83366888
_chemical_formula_structural   V4As2
_chemical_formula_sum   'As2 V4'
_cell_volume   82.88494216
loop_
 _symmetry_equiv_pos_site_id
 _symmetry_equiv_pos_as_xyz
  1  'x, y, z'
loop_
 _atom_type_symbol
  As
  V
loop_
 _atom_site_type_symbol
 _atom_site_label
 _atom_site_symmetry_multiplicity
 _atom_site_fract_x
 _atom_site_fract_y
 _atom_site_fract_z
 _atom_site_occupancy
  As  As0  1  0.10059187  0.89940813  0.25000000  1
  As  As1  1  0.89940813  0.10059187  0.75000000  1
  V  V0  1  0.43249087  0.56750913  0.25000000  1
  V  V1  1  0.56750913  0.43249087  0.75000000  1
  V  V2  1  0.76323157  0.23676843  0.25000000  1
  V  V3  1  0.23676843  0.76323157  0.75000000  1
