# generated using pymatgen
data_4208_Sb8P4
_symmetry_space_group_name_H-M   'Pa -3'
_cell_length_a   6.76595662
_cell_length_b   6.76595662
_cell_length_c   6.76595662
_cell_angle_alpha   90.00000000
_cell_angle_beta   90.00000000
_cell_angle_gamma   90.00000000
_chemical_formula_structural   Sb8P4
_chemical_formula_sum   'P4 Sb8'
_cell_volume   309.73310549
loop_
 _symmetry_equiv_pos_site_id
 _symmetry_equiv_pos_as_xyz
  1  'x, y, z'
loop_
 _atom_type_symbol
  P
  Sb
loop_
 _atom_site_type_symbol
 _atom_site_label
 _atom_site_symmetry_multiplicity
 _atom_site_fract_x
 _atom_site_fract_y
 _atom_site_fract_z
 _atom_site_occupancy
  P  P0  1  0.00000000  0.00000000  0.00000000  1
  P  P1  1  0.50000000  0.50000000  0.00000000  1
  P  P2  1  0.50000000  0.00000000  0.50000000  1
  P  P3  1  0.00000000  0.50000000  0.50000000  1
  Sb  Sb0  1  0.62332496  0.62332496  0.37667504  1
  Sb  Sb1  1  0.37667504  0.37667504  0.62332496  1
  Sb  Sb2  1  0.12332496  0.87667504  0.62332496  1
  Sb  Sb3  1  0.87667504  0.12332496  0.37667504  1
  Sb  Sb4  1  0.37667504  0.12332496  0.12332496  1
  Sb  Sb5  1  0.62332496  0.87667504  0.87667504  1
  Sb  Sb6  1  0.87667504  0.37667504  0.87667504  1
  Sb  Sb7  1  0.12332496  0.62332496  0.12332496  1
