# generated using pymatgen
data_4212_Fe16W8
_symmetry_space_group_name_H-M   'Fd -3 m'
_cell_length_a   7.78200971
_cell_length_b   7.78200971
_cell_length_c   7.78200971
_cell_angle_alpha   60.00000000
_cell_angle_beta   60.00000000
_cell_angle_gamma   60.00000000
_chemical_formula_structural   Fe16W8
_chemical_formula_sum   'Fe16 W8'
_cell_volume   333.24244168
loop_
 _symmetry_equiv_pos_site_id
 _symmetry_equiv_pos_as_xyz
  1  'x, y, z'
loop_
 _atom_type_symbol
  Fe
  W
loop_
 _atom_site_type_symbol
 _atom_site_label
 _atom_site_symmetry_multiplicity
 _atom_site_fract_x
 _atom_site_fract_y
 _atom_site_fract_z
 _atom_site_occupancy
  Fe  Fe0  1  0.00000000  0.50000000  0.00000000  1
  Fe  Fe1  1  0.50000000  0.00000000  0.00000000  1
  Fe  Fe2  1  0.50000000  0.50000000  0.00000000  1
  Fe  Fe3  1  0.50000000  0.50000000  0.50000000  1
  Fe  Fe4  1  0.90597910  0.90597910  0.84402090  1
  Fe  Fe5  1  0.90597910  0.34402090  0.84402090  1
  Fe  Fe6  1  0.34402090  0.90597910  0.84402090  1
  Fe  Fe7  1  0.90597910  0.34402090  0.40597910  1
  Fe  Fe8  1  0.34402090  0.90597910  0.40597910  1
  Fe  Fe9  1  0.34402090  0.34402090  0.40597910  1
  Fe  Fe10  1  0.09402090  0.09402090  0.15597910  1
  Fe  Fe11  1  0.09402090  0.65597910  0.15597910  1
  Fe  Fe12  1  0.65597910  0.09402090  0.15597910  1
  Fe  Fe13  1  0.09402090  0.65597910  0.59402090  1
  Fe  Fe14  1  0.65597910  0.09402090  0.59402090  1
  Fe  Fe15  1  0.65597910  0.65597910  0.59402090  1
  W  W0  1  0.72130370  0.72130370  0.83608889  1
  W  W1  1  0.72130370  0.72130370  0.22130370  1
  W  W2  1  0.72130370  0.33608889  0.22130370  1
  W  W3  1  0.33608889  0.72130370  0.22130370  1
  W  W4  1  0.27869630  0.27869630  0.16391111  1
  W  W5  1  0.27869630  0.27869630  0.77869630  1
  W  W6  1  0.27869630  0.66391111  0.77869630  1
  W  W7  1  0.66391111  0.27869630  0.77869630  1
