# generated using pymatgen
data_4214_Nb2W
_symmetry_space_group_name_H-M   'I4/mmm'
_cell_length_a   3.25285241
_cell_length_b   5.42162715
_cell_length_c   3.25285241
_cell_angle_alpha   72.54308310
_cell_angle_beta   90.00000000
_cell_angle_gamma   107.45691690
_chemical_formula_structural   Nb2W
_chemical_formula_sum   'Nb2 W1'
_cell_volume   51.94801070
loop_
 _symmetry_equiv_pos_site_id
 _symmetry_equiv_pos_as_xyz
  1  'x, y, z'
loop_
 _atom_type_symbol
  Nb
  W
loop_
 _atom_site_type_symbol
 _atom_site_label
 _atom_site_symmetry_multiplicity
 _atom_site_fract_x
 _atom_site_fract_y
 _atom_site_fract_z
 _atom_site_occupancy
  Nb  Nb0  1  0.00403611  0.00807222  0.99596389  1
  Nb  Nb1  1  0.32929722  0.65859444  0.67070278  1
  W  W0  1  0.66666667  0.33333333  0.33333333  1
