# generated using pymatgen
data_4216_Pd2P
_symmetry_space_group_name_H-M   'I4/mmm'
_cell_length_a   5.24102272
_cell_length_b   5.24102272
_cell_length_c   5.24102272
_cell_angle_alpha   146.36947573
_cell_angle_beta   146.36947573
_cell_angle_gamma   48.29829234
_chemical_formula_structural   Pd2P
_chemical_formula_sum   'P1 Pd2'
_cell_volume   43.97343509
loop_
 _symmetry_equiv_pos_site_id
 _symmetry_equiv_pos_as_xyz
  1  'x, y, z'
loop_
 _atom_type_symbol
  P
  Pd
loop_
 _atom_site_type_symbol
 _atom_site_label
 _atom_site_symmetry_multiplicity
 _atom_site_fract_x
 _atom_site_fract_y
 _atom_site_fract_z
 _atom_site_occupancy
  P  P0  1  0.00000000  0.00000000  0.00000000  1
  Pd  Pd0  1  0.64593612  0.64593612  0.00000000  1
  Pd  Pd1  1  0.35406388  0.35406388  0.00000000  1
