# generated using pymatgen
data_4219_CeU
_symmetry_space_group_name_H-M   'Fm -3 m'
_cell_length_a   4.31850900
_cell_length_b   4.31850900
_cell_length_c   4.31850900
_cell_angle_alpha   60.00000000
_cell_angle_beta   60.00000000
_cell_angle_gamma   60.00000000
_chemical_formula_structural   CeU
_chemical_formula_sum   'Ce1 U1'
_cell_volume   56.94905080
loop_
 _symmetry_equiv_pos_site_id
 _symmetry_equiv_pos_as_xyz
  1  'x, y, z'
loop_
 _atom_type_symbol
  Ce
  U
loop_
 _atom_site_type_symbol
 _atom_site_label
 _atom_site_symmetry_multiplicity
 _atom_site_fract_x
 _atom_site_fract_y
 _atom_site_fract_z
 _atom_site_occupancy
  Ce  Ce0  1  0.00000000  0.00000000  0.00000000  1
  U  U0  1  0.50000054  0.50000054  0.50000054  1
