# generated using pymatgen
data_4223_K8As8
_symmetry_space_group_name_H-M   'P2_12_12_1'
_cell_length_a   6.55706400
_cell_length_b   6.77246900
_cell_length_c   11.71399900
_cell_angle_alpha   90.00000000
_cell_angle_beta   90.00000000
_cell_angle_gamma   90.00000000
_chemical_formula_structural   K8As8
_chemical_formula_sum   'As8 K8'
_cell_volume   520.18955902
loop_
 _symmetry_equiv_pos_site_id
 _symmetry_equiv_pos_as_xyz
  1  'x, y, z'
loop_
 _atom_type_symbol
  As
  K
loop_
 _atom_site_type_symbol
 _atom_site_label
 _atom_site_symmetry_multiplicity
 _atom_site_fract_x
 _atom_site_fract_y
 _atom_site_fract_z
 _atom_site_occupancy
  As  As0  1  0.40716088  0.43597247  0.03272495  1
  As  As1  1  0.16922665  0.17907059  0.11252776  1
  As  As2  1  0.83077271  0.67906994  0.38747230  1
  As  As3  1  0.59283848  0.93597182  0.46727510  1
  As  As4  1  0.09283880  0.56402769  0.53272500  1
  As  As5  1  0.33077303  0.82092958  0.61252781  1
  As  As6  1  0.66922785  0.32092875  0.88747235  1
  As  As7  1  0.90716056  0.06402687  0.96727516  1
  K  K0  1  0.90143238  0.60727337  0.08178078  1
  K  K1  1  0.66840432  0.15297228  0.21307583  1
  K  K2  1  0.33159352  0.65297162  0.28692422  1
  K  K3  1  0.09856698  0.10727255  0.41821927  1
  K  K4  1  0.59856818  0.39272680  0.58178084  1
  K  K5  1  0.83159473  0.84702789  0.71307588  1
  K  K6  1  0.16840463  0.34702707  0.78692428  1
  K  K7  1  0.40143270  0.89272909  0.91821932  1
