# generated using pymatgen
data_4227_Sn3Sb
_symmetry_space_group_name_H-M   'Immm'
_cell_length_a   6.27936277
_cell_length_b   6.27936277
_cell_length_c   6.27936277
_cell_angle_alpha   142.78307635
_cell_angle_beta   130.98382301
_cell_angle_gamma   63.11525722
_chemical_formula_structural   Sn3Sb
_chemical_formula_sum   'Sb1 Sn3'
_cell_volume   111.70993594
loop_
 _symmetry_equiv_pos_site_id
 _symmetry_equiv_pos_as_xyz
  1  'x, y, z'
loop_
 _atom_type_symbol
  Sb
  Sn
loop_
 _atom_site_type_symbol
 _atom_site_label
 _atom_site_symmetry_multiplicity
 _atom_site_fract_x
 _atom_site_fract_y
 _atom_site_fract_z
 _atom_site_occupancy
  Sb  Sb0  1  0.50000000  0.00000000  0.50000000  1
  Sn  Sn0  1  0.26553514  0.26553514  0.00000000  1
  Sn  Sn1  1  0.73446486  0.73446486  0.00000000  1
  Sn  Sn2  1  0.00000000  0.50000000  0.50000000  1
