# generated using pymatgen
data_4232_Fe2Bi6
_symmetry_space_group_name_H-M   'P6_3/mmc'
_cell_length_a   7.90877790
_cell_length_b   7.90877654
_cell_length_c   4.05593926
_cell_angle_alpha   90.00000000
_cell_angle_beta   90.00000000
_cell_angle_gamma   120.00000041
_chemical_formula_structural   Fe2Bi6
_chemical_formula_sum   'Bi6 Fe2'
_cell_volume   219.70541283
loop_
 _symmetry_equiv_pos_site_id
 _symmetry_equiv_pos_as_xyz
  1  'x, y, z'
loop_
 _atom_type_symbol
  Bi
  Fe
loop_
 _atom_site_type_symbol
 _atom_site_label
 _atom_site_symmetry_multiplicity
 _atom_site_fract_x
 _atom_site_fract_y
 _atom_site_fract_z
 _atom_site_occupancy
  Bi  Bi0  1  0.19141358  0.38282717  0.25000069  1
  Bi  Bi1  1  0.19141266  0.80858625  0.25000069  1
  Bi  Bi2  1  0.61717359  0.80858625  0.25000069  1
  Bi  Bi3  1  0.38282601  0.19141279  0.74999994  1
  Bi  Bi4  1  0.80858556  0.19141279  0.74999994  1
  Bi  Bi5  1  0.80858681  0.61717347  0.74999994  1
  Fe  Fe0  1  0.66666685  0.33333355  0.25000069  1
  Fe  Fe1  1  0.33333354  0.66666709  0.74999994  1
