# generated using pymatgen
data_4242_PtV5
_symmetry_space_group_name_H-M   'F-43m'
_cell_length_a   4.90019508
_cell_length_b   4.90019508
_cell_length_c   4.90019508
_cell_angle_alpha   60.00000000
_cell_angle_beta   60.00000000
_cell_angle_gamma   60.00000000
_chemical_formula_structural   PtV5
_chemical_formula_sum   'Pt1 V5'
_cell_volume   83.20034207
loop_
 _symmetry_equiv_pos_site_id
 _symmetry_equiv_pos_as_xyz
  1  'x, y, z'
loop_
 _atom_type_symbol
  Pt
  V
loop_
 _atom_site_type_symbol
 _atom_site_label
 _atom_site_symmetry_multiplicity
 _atom_site_fract_x
 _atom_site_fract_y
 _atom_site_fract_z
 _atom_site_occupancy
  Pt  Pt0  1  0.00000000  0.00000000  0.00000000  1
  V  V0  1  0.37666886  0.37666886  0.37666886  1
  V  V1  1  0.75000000  0.75000000  0.75000000  1
  V  V2  1  0.37666886  0.37666886  0.86999342  1
  V  V3  1  0.86999342  0.37666886  0.37666886  1
  V  V4  1  0.37666886  0.86999342  0.37666886  1
