# generated using pymatgen
data_4245_Cu2Mn
_symmetry_space_group_name_H-M   'Immm'
_cell_length_a   3.74824848
_cell_length_b   6.82572088
_cell_length_c   2.74774090
_cell_angle_alpha   90.00000000
_cell_angle_beta   90.00000000
_cell_angle_gamma   90.00000000
_chemical_formula_structural   Cu2Mn
_chemical_formula_sum   'Cu4 Mn2'
_cell_volume   70.29957132
loop_
 _symmetry_equiv_pos_site_id
 _symmetry_equiv_pos_as_xyz
  1  'x, y, z'
loop_
 _atom_type_symbol
  Cu
  Mn
loop_
 _atom_site_type_symbol
 _atom_site_label
 _atom_site_symmetry_multiplicity
 _atom_site_fract_x
 _atom_site_fract_y
 _atom_site_fract_z
 _atom_site_occupancy
  Cu  Cu0  1  0.01022506  0.33404817  0.00000000  1
  Cu  Cu1  1  0.48977494  0.83404817  0.50000000  1
  Cu  Cu2  1  0.51022506  0.16595183  0.50000000  1
  Cu  Cu3  1  0.98977494  0.66595183  0.00000000  1
  Mn  Mn0  1  0.00000000  0.00000000  0.00000000  1
  Mn  Mn1  1  0.50000000  0.50000000  0.50000000  1
