# generated using pymatgen
data_4246_AuW4
_symmetry_space_group_name_H-M   'I4/m'
_cell_length_a   6.40539296
_cell_length_b   6.40539296
_cell_length_c   4.95166639
_cell_angle_alpha   49.69985936
_cell_angle_beta   49.69985936
_cell_angle_gamma   90.00000000
_chemical_formula_structural   AuW4
_chemical_formula_sum   'Au1 W4'
_cell_volume   82.10396053
loop_
 _symmetry_equiv_pos_site_id
 _symmetry_equiv_pos_as_xyz
  1  'x, y, z'
loop_
 _atom_type_symbol
  Au
  W
loop_
 _atom_site_type_symbol
 _atom_site_label
 _atom_site_symmetry_multiplicity
 _atom_site_fract_x
 _atom_site_fract_y
 _atom_site_fract_z
 _atom_site_occupancy
  Au  Au0  1  0.00000000  0.00000000  0.00000000  1
  W  W0  1  0.80126417  0.60073840  0.00000000  1
  W  W1  1  0.19873583  0.39926160  0.00000000  1
  W  W2  1  0.60073840  0.19873583  0.00000000  1
  W  W3  1  0.39926160  0.80126417  0.00000000  1
