# generated using pymatgen
data_4252_AlCu3
_symmetry_space_group_name_H-M   'Imm2'
_cell_length_a   4.91568972
_cell_length_b   4.91568972
_cell_length_c   4.91568972
_cell_angle_alpha   147.47321731
_cell_angle_beta   127.57200699
_cell_angle_gamma   63.07021814
_chemical_formula_structural   AlCu3
_chemical_formula_sum   'Al1 Cu3'
_cell_volume   50.09666492
loop_
 _symmetry_equiv_pos_site_id
 _symmetry_equiv_pos_as_xyz
  1  'x, y, z'
loop_
 _atom_type_symbol
  Al
  Cu
loop_
 _atom_site_type_symbol
 _atom_site_label
 _atom_site_symmetry_multiplicity
 _atom_site_fract_x
 _atom_site_fract_y
 _atom_site_fract_z
 _atom_site_occupancy
  Al  Al0  1  0.02183436  0.00000000  0.02183436  1
  Cu  Cu0  1  0.51747124  0.50000000  0.01747124  1
  Cu  Cu1  1  0.89607943  0.24906557  0.64701386  1
  Cu  Cu2  1  0.39794830  0.75093443  0.64701386  1
