# generated using pymatgen
data_4257_Fe2Sb2
_symmetry_space_group_name_H-M   'Imma'
_cell_length_a   6.66830516
_cell_length_b   6.66830516
_cell_length_c   6.66830516
_cell_angle_alpha   152.68672655
_cell_angle_beta   145.41906215
_cell_angle_gamma   44.61548945
_chemical_formula_structural   Fe2Sb2
_chemical_formula_sum   'Fe2 Sb2'
_cell_volume   77.00090825
loop_
 _symmetry_equiv_pos_site_id
 _symmetry_equiv_pos_as_xyz
  1  'x, y, z'
loop_
 _atom_type_symbol
  Fe
  Sb
loop_
 _atom_site_type_symbol
 _atom_site_label
 _atom_site_symmetry_multiplicity
 _atom_site_fract_x
 _atom_site_fract_y
 _atom_site_fract_z
 _atom_site_occupancy
  Fe  Fe0  1  0.30061332  0.55061332  0.25000000  1
  Fe  Fe1  1  0.69938668  0.44938668  0.75000000  1
  Sb  Sb0  1  0.87492923  0.12492923  0.25000000  1
  Sb  Sb1  1  0.12507077  0.87507077  0.75000000  1
