# generated using pymatgen
data_425_CsYb
_symmetry_space_group_name_H-M   'P-6m2'
_cell_length_a   4.45090281
_cell_length_b   4.45090097
_cell_length_c   7.72847747
_cell_angle_alpha   90.00000000
_cell_angle_beta   90.00000000
_cell_angle_gamma   120.00001372
_chemical_formula_structural   CsYb
_chemical_formula_sum   'Cs1 Yb1'
_cell_volume   132.59298871
loop_
 _symmetry_equiv_pos_site_id
 _symmetry_equiv_pos_as_xyz
  1  'x, y, z'
loop_
 _atom_type_symbol
  Cs
  Yb
loop_
 _atom_site_type_symbol
 _atom_site_label
 _atom_site_symmetry_multiplicity
 _atom_site_fract_x
 _atom_site_fract_y
 _atom_site_fract_z
 _atom_site_occupancy
  Cs  Cs0  1  0.66666742  0.33333385  0.75000000  1
  Yb  Yb0  1  0.33333258  0.66666615  0.25000000  1
