# generated using pymatgen
data_4261_Mo4W16
_symmetry_space_group_name_H-M   'I-43m'
_cell_length_a   7.77279949
_cell_length_b   7.77279949
_cell_length_c   7.77279949
_cell_angle_alpha   109.47122063
_cell_angle_beta   109.47122063
_cell_angle_gamma   109.47122063
_chemical_formula_structural   Mo4W16
_chemical_formula_sum   'Mo4 W16'
_cell_volume   361.50183301
loop_
 _symmetry_equiv_pos_site_id
 _symmetry_equiv_pos_as_xyz
  1  'x, y, z'
loop_
 _atom_type_symbol
  Mo
  W
loop_
 _atom_site_type_symbol
 _atom_site_label
 _atom_site_symmetry_multiplicity
 _atom_site_fract_x
 _atom_site_fract_y
 _atom_site_fract_z
 _atom_site_occupancy
  Mo  Mo0  1  0.66789156  0.00000000  0.00000000  1
  Mo  Mo1  1  0.33210844  0.33210844  0.33210844  1
  Mo  Mo2  1  1.00000000  1.00000000  0.66789156  1
  Mo  Mo3  1  0.00000000  0.66789156  0.00000000  1
  W  W0  1  0.34549760  0.00000000  0.00000000  1
  W  W1  1  0.65450240  0.65450240  0.65450240  1
  W  W2  1  1.00000000  1.00000000  0.34549760  1
  W  W3  1  0.00000000  0.34549760  0.00000000  1
  W  W4  1  0.33318189  0.33318189  0.00000000  1
  W  W5  1  0.66681811  0.66681811  0.00000000  1
  W  W6  1  0.33318189  1.00000000  0.33318189  1
  W  W7  1  0.66681811  1.00000000  0.66681811  1
  W  W8  1  0.00000000  0.66681811  0.66681811  1
  W  W9  1  0.00000000  0.33318189  0.33318189  1
  W  W10  1  0.74976553  0.24976553  0.50000000  1
  W  W11  1  0.25023447  0.75023447  0.50000000  1
  W  W12  1  0.24976553  0.50000000  0.74976553  1
  W  W13  1  0.75023447  0.50000000  0.25023447  1
  W  W14  1  0.50000000  0.25023447  0.75023447  1
  W  W15  1  0.50000000  0.74976553  0.24976553  1
