# generated using pymatgen
data_4265_Ba2Ni6
_symmetry_space_group_name_H-M   'I4/mmm'
_cell_length_a   8.54240933
_cell_length_b   8.54240933
_cell_length_c   8.54240933
_cell_angle_alpha   151.79244563
_cell_angle_beta   151.79244563
_cell_angle_gamma   40.31647853
_chemical_formula_structural   Ba2Ni6
_chemical_formula_sum   'Ba2 Ni6'
_cell_volume   138.99031305
loop_
 _symmetry_equiv_pos_site_id
 _symmetry_equiv_pos_as_xyz
  1  'x, y, z'
loop_
 _atom_type_symbol
  Ba
  Ni
loop_
 _atom_site_type_symbol
 _atom_site_label
 _atom_site_symmetry_multiplicity
 _atom_site_fract_x
 _atom_site_fract_y
 _atom_site_fract_z
 _atom_site_occupancy
  Ba  Ba0  1  0.62595552  0.62595552  0.00000000  1
  Ba  Ba1  1  0.37404448  0.37404448  0.00000000  1
  Ni  Ni0  1  0.50000000  0.00000000  0.50000000  1
  Ni  Ni1  1  0.00000000  0.50000000  0.50000000  1
  Ni  Ni2  1  0.25000000  0.75000000  0.50000000  1
  Ni  Ni3  1  0.75000000  0.25000000  0.50000000  1
  Ni  Ni4  1  0.87403673  0.87403673  0.00000000  1
  Ni  Ni5  1  0.12596327  0.12596327  0.00000000  1
