# generated using pymatgen
data_4268_In4W8
_symmetry_space_group_name_H-M   'Pnma'
_cell_length_a   4.36515742
_cell_length_b   5.81627728
_cell_length_c   8.54521450
_cell_angle_alpha   90.00000000
_cell_angle_beta   90.00000000
_cell_angle_gamma   90.00000000
_chemical_formula_structural   In4W8
_chemical_formula_sum   'In4 W8'
_cell_volume   216.95415977
loop_
 _symmetry_equiv_pos_site_id
 _symmetry_equiv_pos_as_xyz
  1  'x, y, z'
loop_
 _atom_type_symbol
  In
  W
loop_
 _atom_site_type_symbol
 _atom_site_label
 _atom_site_symmetry_multiplicity
 _atom_site_fract_x
 _atom_site_fract_y
 _atom_site_fract_z
 _atom_site_occupancy
  In  In0  1  0.25000000  0.63749053  0.42257809  1
  In  In1  1  0.75000000  0.86250947  0.92257809  1
  In  In2  1  0.25000000  0.13749053  0.07742191  1
  In  In3  1  0.75000000  0.36250947  0.57742191  1
  W  W0  1  0.25000000  0.06179952  0.71273088  1
  W  W1  1  0.75000000  0.43820048  0.21273088  1
  W  W2  1  0.25000000  0.56179952  0.78726912  1
  W  W3  1  0.75000000  0.93820048  0.28726912  1
  W  W4  1  0.25000000  0.13336318  0.41046651  1
  W  W5  1  0.75000000  0.36663682  0.91046651  1
  W  W6  1  0.25000000  0.63336318  0.08953349  1
  W  W7  1  0.75000000  0.86663682  0.58953349  1
