# generated using pymatgen
data_4276_V8As16
_symmetry_space_group_name_H-M   'Fd -3 m'
_cell_length_a   8.31473203
_cell_length_b   8.31473203
_cell_length_c   8.31473203
_cell_angle_alpha   60.00000000
_cell_angle_beta   60.00000000
_cell_angle_gamma   60.00000000
_chemical_formula_structural   V8As16
_chemical_formula_sum   'As16 V8'
_cell_volume   406.47119403
loop_
 _symmetry_equiv_pos_site_id
 _symmetry_equiv_pos_as_xyz
  1  'x, y, z'
loop_
 _atom_type_symbol
  As
  V
loop_
 _atom_site_type_symbol
 _atom_site_label
 _atom_site_symmetry_multiplicity
 _atom_site_fract_x
 _atom_site_fract_y
 _atom_site_fract_z
 _atom_site_occupancy
  As  As0  1  0.00000000  0.50000000  0.00000000  1
  As  As1  1  0.50000000  0.00000000  0.00000000  1
  As  As2  1  0.50000000  0.50000000  0.00000000  1
  As  As3  1  0.50000000  0.50000000  0.50000000  1
  As  As4  1  0.91355185  0.91355185  0.83644815  1
  As  As5  1  0.91355185  0.33644815  0.83644815  1
  As  As6  1  0.33644815  0.91355185  0.83644815  1
  As  As7  1  0.91355185  0.33644815  0.41355185  1
  As  As8  1  0.33644815  0.91355185  0.41355185  1
  As  As9  1  0.33644815  0.33644815  0.41355185  1
  As  As10  1  0.08644815  0.08644815  0.16355185  1
  As  As11  1  0.08644815  0.66355185  0.16355185  1
  As  As12  1  0.66355185  0.08644815  0.16355185  1
  As  As13  1  0.08644815  0.66355185  0.58644815  1
  As  As14  1  0.66355185  0.08644815  0.58644815  1
  As  As15  1  0.66355185  0.66355185  0.58644815  1
  V  V0  1  0.72020916  0.72020916  0.83937252  1
  V  V1  1  0.72020916  0.72020916  0.22020916  1
  V  V2  1  0.72020916  0.33937252  0.22020916  1
  V  V3  1  0.33937252  0.72020916  0.22020916  1
  V  V4  1  0.27979084  0.27979084  0.16062748  1
  V  V5  1  0.27979084  0.27979084  0.77979084  1
  V  V6  1  0.27979084  0.66062748  0.77979084  1
  V  V7  1  0.66062748  0.27979084  0.77979084  1
