# generated using pymatgen
data_4278_CuTa3
_symmetry_space_group_name_H-M   'Immm'
_cell_length_a   4.34157821
_cell_length_b   5.13591718
_cell_length_c   3.63221668
_cell_angle_alpha   69.29176125
_cell_angle_beta   90.00000000
_cell_angle_gamma   115.00315994
_chemical_formula_structural   CuTa3
_chemical_formula_sum   'Cu1 Ta3'
_cell_volume   67.58328894
loop_
 _symmetry_equiv_pos_site_id
 _symmetry_equiv_pos_as_xyz
  1  'x, y, z'
loop_
 _atom_type_symbol
  Cu
  Ta
loop_
 _atom_site_type_symbol
 _atom_site_label
 _atom_site_symmetry_multiplicity
 _atom_site_fract_x
 _atom_site_fract_y
 _atom_site_fract_z
 _atom_site_occupancy
  Cu  Cu0  1  0.00000000  0.00000000  0.00000000  1
  Ta  Ta0  1  0.24593961  0.49187923  0.25406039  1
  Ta  Ta1  1  0.50000000  0.00000000  0.50000000  1
  Ta  Ta2  1  0.75406039  0.50812077  0.74593961  1
