# generated using pymatgen
data_4284_MoW5
_symmetry_space_group_name_H-M   'Cmmm'
_cell_length_a   4.49435325
_cell_length_b   5.27830137
_cell_length_c   4.49987708
_cell_angle_alpha   90.00000000
_cell_angle_beta   90.00000000
_cell_angle_gamma   64.80257684
_chemical_formula_structural   MoW5
_chemical_formula_sum   'Mo1 W5'
_cell_volume   96.59103178
loop_
 _symmetry_equiv_pos_site_id
 _symmetry_equiv_pos_as_xyz
  1  'x, y, z'
loop_
 _atom_type_symbol
  Mo
  W
loop_
 _atom_site_type_symbol
 _atom_site_label
 _atom_site_symmetry_multiplicity
 _atom_site_fract_x
 _atom_site_fract_y
 _atom_site_fract_z
 _atom_site_occupancy
  Mo  Mo0  1  0.02782572  0.94434856  0.00000000  1
  W  W0  1  0.19424790  0.61150421  0.50000000  1
  W  W1  1  0.36104027  0.27791946  0.00000000  1
  W  W2  1  0.52772134  0.94455733  0.50000000  1
  W  W3  1  0.69463108  0.61073784  0.00000000  1
  W  W4  1  0.86120036  0.27759928  0.50000000  1
