# generated using pymatgen
data_4285_In2Mn
_symmetry_space_group_name_H-M   'I4/mmm'
_cell_length_a   6.72638268
_cell_length_b   6.72638268
_cell_length_c   6.72638268
_cell_angle_alpha   152.96883968
_cell_angle_beta   152.97246361
_cell_angle_gamma   38.59749732
_chemical_formula_structural   In2Mn
_chemical_formula_sum   'In2 Mn1'
_cell_volume   62.74585203
loop_
 _symmetry_equiv_pos_site_id
 _symmetry_equiv_pos_as_xyz
  1  'x, y, z'
loop_
 _atom_type_symbol
  In
  Mn
loop_
 _atom_site_type_symbol
 _atom_site_label
 _atom_site_symmetry_multiplicity
 _atom_site_fract_x
 _atom_site_fract_y
 _atom_site_fract_z
 _atom_site_occupancy
  In  In0  1  0.64573574  0.64573574  1.00000000  1
  In  In1  1  0.35426426  0.35426426  0.00000000  1
  Mn  Mn0  1  0.00000000  0.00000000  0.00000000  1
