# generated using pymatgen
data_4292_Au6Mn2
_symmetry_space_group_name_H-M   'I4/mmm'
_cell_length_a   4.13625960
_cell_length_b   4.13625960
_cell_length_c   8.62406882
_cell_angle_alpha   76.12472905
_cell_angle_beta   76.12472905
_cell_angle_gamma   90.00000000
_chemical_formula_structural   Au6Mn2
_chemical_formula_sum   'Au6 Mn2'
_cell_volume   138.80186817
loop_
 _symmetry_equiv_pos_site_id
 _symmetry_equiv_pos_as_xyz
  1  'x, y, z'
loop_
 _atom_type_symbol
  Au
  Mn
loop_
 _atom_site_type_symbol
 _atom_site_label
 _atom_site_symmetry_multiplicity
 _atom_site_fract_x
 _atom_site_fract_y
 _atom_site_fract_z
 _atom_site_occupancy
  Au  Au0  1  0.00000000  0.50000000  0.00000000  1
  Au  Au1  1  0.87606093  0.87606093  0.24787814  1
  Au  Au2  1  0.12393907  0.12393907  0.75212186  1
  Au  Au3  1  0.75000000  0.25000000  0.50000000  1
  Au  Au4  1  0.25000000  0.75000000  0.50000000  1
  Au  Au5  1  0.50000000  0.00000000  0.00000000  1
  Mn  Mn0  1  0.62709413  0.62709413  0.74581173  1
  Mn  Mn1  1  0.37290587  0.37290587  0.25418827  1
