# generated using pymatgen
data_4294_Cr2As4
_symmetry_space_group_name_H-M   'C2/m'
_cell_length_a   3.21737300
_cell_length_b   4.73712198
_cell_length_c   6.66609128
_cell_angle_alpha   91.44054637
_cell_angle_beta   103.96468990
_cell_angle_gamma   109.85199623
_chemical_formula_structural   Cr2As4
_chemical_formula_sum   'As4 Cr2'
_cell_volume   92.09597877
loop_
 _symmetry_equiv_pos_site_id
 _symmetry_equiv_pos_as_xyz
  1  'x, y, z'
loop_
 _atom_type_symbol
  As
  Cr
loop_
 _atom_site_type_symbol
 _atom_site_label
 _atom_site_symmetry_multiplicity
 _atom_site_fract_x
 _atom_site_fract_y
 _atom_site_fract_z
 _atom_site_occupancy
  As  As0  1  0.88683073  0.73691801  0.03674133  1
  As  As1  1  0.79829426  0.20209553  0.39449086  1
  As  As2  1  0.20170509  0.79790399  0.60550833  1
  As  As3  1  0.11316953  0.26308178  0.96325941  1
  Cr  Cr0  1  0.45318017  0.60659949  0.29976085  1
  Cr  Cr1  1  0.54682009  0.39340030  0.70023989  1
