# generated using pymatgen
data_4299_Ga2Ge6
_symmetry_space_group_name_H-M   'Pmmn'
_cell_length_a   4.98092479
_cell_length_b   5.17573210
_cell_length_c   5.91686693
_cell_angle_alpha   90.00000000
_cell_angle_beta   90.00000000
_cell_angle_gamma   90.00000000
_chemical_formula_structural   Ga2Ge6
_chemical_formula_sum   'Ga2 Ge6'
_cell_volume   152.53642902
loop_
 _symmetry_equiv_pos_site_id
 _symmetry_equiv_pos_as_xyz
  1  'x, y, z'
loop_
 _atom_type_symbol
  Ga
  Ge
loop_
 _atom_site_type_symbol
 _atom_site_label
 _atom_site_symmetry_multiplicity
 _atom_site_fract_x
 _atom_site_fract_y
 _atom_site_fract_z
 _atom_site_occupancy
  Ga  Ga0  1  0.00000000  0.34495694  0.00000000  1
  Ga  Ga1  1  0.50000000  0.65504306  0.50000000  1
  Ge  Ge0  1  0.50000000  0.65519070  0.00000000  1
  Ge  Ge1  1  0.00000000  0.34480930  0.50000000  1
  Ge  Ge2  1  0.00000000  0.84537168  0.24976196  1
  Ge  Ge3  1  0.00000000  0.84537168  0.75023804  1
  Ge  Ge4  1  0.50000000  0.15462832  0.74976196  1
  Ge  Ge5  1  0.50000000  0.15462832  0.25023804  1
