# generated using pymatgen
data_4313_Rh3Ta
_symmetry_space_group_name_H-M   'Pmm2'
_cell_length_a   2.84911070
_cell_length_b   4.41133790
_cell_length_c   4.76368984
_cell_angle_alpha   90.00000000
_cell_angle_beta   90.00000000
_cell_angle_gamma   90.00000000
_chemical_formula_structural   Rh3Ta
_chemical_formula_sum   'Rh3 Ta1'
_cell_volume   59.87191181
loop_
 _symmetry_equiv_pos_site_id
 _symmetry_equiv_pos_as_xyz
  1  'x, y, z'
loop_
 _atom_type_symbol
  Rh
  Ta
loop_
 _atom_site_type_symbol
 _atom_site_label
 _atom_site_symmetry_multiplicity
 _atom_site_fract_x
 _atom_site_fract_y
 _atom_site_fract_z
 _atom_site_occupancy
  Rh  Rh0  1  0.00000000  0.00000000  0.99444292  1
  Rh  Rh1  1  0.50000000  0.00000000  0.50278534  1
  Rh  Rh2  1  0.50000000  0.50000000  0.84182590  1
  Ta  Ta0  1  0.00000000  0.50000000  0.32761251  1
