# generated using pymatgen
data_4318_AcNp
_symmetry_space_group_name_H-M   'P-6m2'
_cell_length_a   3.59698928
_cell_length_b   3.59693974
_cell_length_c   5.99086783
_cell_angle_alpha   90.00000000
_cell_angle_beta   90.00000000
_cell_angle_gamma   120.00045560
_chemical_formula_structural   AcNp
_chemical_formula_sum   'Ac1 Np1'
_cell_volume   67.12598659
loop_
 _symmetry_equiv_pos_site_id
 _symmetry_equiv_pos_as_xyz
  1  'x, y, z'
loop_
 _atom_type_symbol
  Ac
  Np
loop_
 _atom_site_type_symbol
 _atom_site_label
 _atom_site_symmetry_multiplicity
 _atom_site_fract_x
 _atom_site_fract_y
 _atom_site_fract_z
 _atom_site_occupancy
  Ac  Ac0  1  0.66666695  0.33333290  0.75000000  1
  Np  Np0  1  0.33333305  0.66666710  0.25000000  1
