# generated using pymatgen
data_4321_MoW2
_symmetry_space_group_name_H-M   'Immm'
_cell_length_a   4.93262844
_cell_length_b   4.93262844
_cell_length_c   4.93262844
_cell_angle_alpha   146.44407050
_cell_angle_beta   131.82040373
_cell_angle_gamma   59.99043615
_chemical_formula_structural   MoW2
_chemical_formula_sum   'Mo1 W2'
_cell_volume   48.98663954
loop_
 _symmetry_equiv_pos_site_id
 _symmetry_equiv_pos_as_xyz
  1  'x, y, z'
loop_
 _atom_type_symbol
  Mo
  W
loop_
 _atom_site_type_symbol
 _atom_site_label
 _atom_site_symmetry_multiplicity
 _atom_site_fract_x
 _atom_site_fract_y
 _atom_site_fract_z
 _atom_site_occupancy
  Mo  Mo0  1  0.00000000  0.00000000  0.00000000  1
  W  W0  1  0.33335733  0.33335733  0.00000000  1
  W  W1  1  0.66664267  0.66664267  1.00000000  1
