# generated using pymatgen
data_4334_CuSb3
_symmetry_space_group_name_H-M   'P4/mmm'
_cell_length_a   3.58992982
_cell_length_b   3.58992982
_cell_length_c   7.16428623
_cell_angle_alpha   90.00000000
_cell_angle_beta   90.00000000
_cell_angle_gamma   90.00000000
_chemical_formula_structural   CuSb3
_chemical_formula_sum   'Cu1 Sb3'
_cell_volume   92.33042737
loop_
 _symmetry_equiv_pos_site_id
 _symmetry_equiv_pos_as_xyz
  1  'x, y, z'
loop_
 _atom_type_symbol
  Cu
  Sb
loop_
 _atom_site_type_symbol
 _atom_site_label
 _atom_site_symmetry_multiplicity
 _atom_site_fract_x
 _atom_site_fract_y
 _atom_site_fract_z
 _atom_site_occupancy
  Cu  Cu0  1  0.00000000  0.00000000  0.00000000  1
  Sb  Sb0  1  0.50000000  0.50000000  0.21156550  1
  Sb  Sb1  1  0.00000000  0.00000000  0.50000000  1
  Sb  Sb2  1  0.50000000  0.50000000  0.78843450  1
