# generated using pymatgen
data_4336_In16Sn4
_symmetry_space_group_name_H-M   'I-43m'
_cell_length_a   9.18144830
_cell_length_b   9.18144830
_cell_length_c   9.18144830
_cell_angle_alpha   109.47122063
_cell_angle_beta   109.47122063
_cell_angle_gamma   109.47122063
_chemical_formula_structural   In16Sn4
_chemical_formula_sum   'In16 Sn4'
_cell_volume   595.81535184
loop_
 _symmetry_equiv_pos_site_id
 _symmetry_equiv_pos_as_xyz
  1  'x, y, z'
loop_
 _atom_type_symbol
  In
  Sn
loop_
 _atom_site_type_symbol
 _atom_site_label
 _atom_site_symmetry_multiplicity
 _atom_site_fract_x
 _atom_site_fract_y
 _atom_site_fract_z
 _atom_site_occupancy
  In  In0  1  0.66187769  0.66187769  0.66187769  1
  In  In1  1  0.33812231  0.00000000  0.00000000  1
  In  In2  1  0.00000000  0.33812231  0.00000000  1
  In  In3  1  0.00000000  0.00000000  0.33812231  1
  In  In4  1  0.66483329  0.66483329  0.00000000  1
  In  In5  1  0.33516671  0.33516671  0.00000000  1
  In  In6  1  0.66483329  0.00000000  0.66483329  1
  In  In7  1  0.33516671  0.00000000  0.33516671  1
  In  In8  1  1.00000000  0.66483329  0.66483329  1
  In  In9  1  0.00000000  0.33516671  0.33516671  1
  In  In10  1  0.24986049  0.74986049  0.50000000  1
  In  In11  1  0.75013951  0.25013951  0.50000000  1
  In  In12  1  0.74986049  0.50000000  0.24986049  1
  In  In13  1  0.25013951  0.50000000  0.75013951  1
  In  In14  1  0.50000000  0.24986049  0.74986049  1
  In  In15  1  0.50000000  0.75013951  0.25013951  1
  Sn  Sn0  1  0.33556131  0.33556131  0.33556131  1
  Sn  Sn1  1  0.66443869  0.00000000  0.00000000  1
  Sn  Sn2  1  0.00000000  0.66443869  0.00000000  1
  Sn  Sn3  1  0.00000000  0.00000000  0.66443869  1
