# generated using pymatgen
data_4340_W2P2
_symmetry_space_group_name_H-M   'I4_1/amd'
_cell_length_a   4.66776812
_cell_length_b   4.66776812
_cell_length_c   4.66776812
_cell_angle_alpha   129.87198881
_cell_angle_beta   129.87198881
_cell_angle_gamma   73.61149460
_chemical_formula_structural   W2P2
_chemical_formula_sum   'P2 W2'
_cell_volume   58.45428907
loop_
 _symmetry_equiv_pos_site_id
 _symmetry_equiv_pos_as_xyz
  1  'x, y, z'
loop_
 _atom_type_symbol
  P
  W
loop_
 _atom_site_type_symbol
 _atom_site_label
 _atom_site_symmetry_multiplicity
 _atom_site_fract_x
 _atom_site_fract_y
 _atom_site_fract_z
 _atom_site_occupancy
  P  P0  1  0.00000000  0.00000000  0.00000000  1
  P  P1  1  0.25000000  0.75000000  0.50000000  1
  W  W0  1  0.50000000  0.50000000  0.00000000  1
  W  W1  1  0.75000000  0.25000000  0.50000000  1
