# generated using pymatgen
data_4343_AlK4
_symmetry_space_group_name_H-M   'I4/mmm'
_cell_length_a   11.63738849
_cell_length_b   11.63738849
_cell_length_c   11.63738849
_cell_angle_alpha   153.91188738
_cell_angle_beta   153.91188738
_cell_angle_gamma   37.22768703
_chemical_formula_structural   AlK4
_chemical_formula_sum   'Al1 K4'
_cell_volume   304.33885904
loop_
 _symmetry_equiv_pos_site_id
 _symmetry_equiv_pos_as_xyz
  1  'x, y, z'
loop_
 _atom_type_symbol
  Al
  K
loop_
 _atom_site_type_symbol
 _atom_site_label
 _atom_site_symmetry_multiplicity
 _atom_site_fract_x
 _atom_site_fract_y
 _atom_site_fract_z
 _atom_site_occupancy
  Al  Al0  1  0.00000000  0.00000000  0.00000000  1
  K  K0  1  0.25000000  0.75000000  0.50000000  1
  K  K1  1  0.75000000  0.25000000  0.50000000  1
  K  K2  1  0.58188182  0.58188182  0.00000000  1
  K  K3  1  0.41811818  0.41811818  0.00000000  1
