# generated using pymatgen
data_4348_Cu3Br
_symmetry_space_group_name_H-M   'Pmm2'
_cell_length_a   3.43746955
_cell_length_b   3.54379604
_cell_length_c   5.42438647
_cell_angle_alpha   90.00000000
_cell_angle_beta   90.00000000
_cell_angle_gamma   90.00000000
_chemical_formula_structural   Cu3Br
_chemical_formula_sum   'Br1 Cu3'
_cell_volume   66.07819973
loop_
 _symmetry_equiv_pos_site_id
 _symmetry_equiv_pos_as_xyz
  1  'x, y, z'
loop_
 _atom_type_symbol
  Br
  Cu
loop_
 _atom_site_type_symbol
 _atom_site_label
 _atom_site_symmetry_multiplicity
 _atom_site_fract_x
 _atom_site_fract_y
 _atom_site_fract_z
 _atom_site_occupancy
  Br  Br0  1  0.00000000  0.00000000  0.03318053  1
  Cu  Cu0  1  0.50000000  0.00000000  0.45186222  1
  Cu  Cu1  1  0.50000000  0.50000000  0.75849401  1
  Cu  Cu2  1  0.00000000  0.50000000  0.42312991  1
