# generated using pymatgen
data_4350_Au2Ni2
_symmetry_space_group_name_H-M   'Cmcm'
_cell_length_a   2.79849238
_cell_length_b   5.20250227
_cell_length_c   4.17567968
_cell_angle_alpha   90.00000000
_cell_angle_beta   90.00000000
_cell_angle_gamma   74.39782504
_chemical_formula_structural   Au2Ni2
_chemical_formula_sum   'Au2 Ni2'
_cell_volume   58.55427062
loop_
 _symmetry_equiv_pos_site_id
 _symmetry_equiv_pos_as_xyz
  1  'x, y, z'
loop_
 _atom_type_symbol
  Au
  Ni
loop_
 _atom_site_type_symbol
 _atom_site_label
 _atom_site_symmetry_multiplicity
 _atom_site_fract_x
 _atom_site_fract_y
 _atom_site_fract_z
 _atom_site_occupancy
  Au  Au0  1  0.83315832  0.33368336  0.25000000  1
  Au  Au1  1  0.16684168  0.66631664  0.75000000  1
  Ni  Ni0  1  0.56457629  0.87084742  0.25000000  1
  Ni  Ni1  1  0.43542371  0.12915258  0.75000000  1
