# generated using pymatgen
data_4357_Au2Fe2
_symmetry_space_group_name_H-M   'Pmmn'
_cell_length_a   2.81826918
_cell_length_b   4.48328678
_cell_length_c   4.88708119
_cell_angle_alpha   90.00000000
_cell_angle_beta   90.00000000
_cell_angle_gamma   90.00000000
_chemical_formula_structural   Au2Fe2
_chemical_formula_sum   'Au2 Fe2'
_cell_volume   61.74880332
loop_
 _symmetry_equiv_pos_site_id
 _symmetry_equiv_pos_as_xyz
  1  'x, y, z'
loop_
 _atom_type_symbol
  Au
  Fe
loop_
 _atom_site_type_symbol
 _atom_site_label
 _atom_site_symmetry_multiplicity
 _atom_site_fract_x
 _atom_site_fract_y
 _atom_site_fract_z
 _atom_site_occupancy
  Au  Au0  1  0.00000000  0.00000000  0.02032307  1
  Au  Au1  1  0.50000000  0.50000000  0.81301027  1
  Fe  Fe0  1  0.00000000  0.50000000  0.34089880  1
  Fe  Fe1  1  0.50000000  0.00000000  0.49243453  1
