# generated using pymatgen
data_4360_Mn4W2
_symmetry_space_group_name_H-M   'Cmcm'
_cell_length_a   3.61452571
_cell_length_b   5.96323680
_cell_length_c   3.71209948
_cell_angle_alpha   90.00000000
_cell_angle_beta   90.00000000
_cell_angle_gamma   72.35806643
_chemical_formula_structural   Mn4W2
_chemical_formula_sum   'Mn4 W2'
_cell_volume   76.24858793
loop_
 _symmetry_equiv_pos_site_id
 _symmetry_equiv_pos_as_xyz
  1  'x, y, z'
loop_
 _atom_type_symbol
  Mn
  W
loop_
 _atom_site_type_symbol
 _atom_site_label
 _atom_site_symmetry_multiplicity
 _atom_site_fract_x
 _atom_site_fract_y
 _atom_site_fract_z
 _atom_site_occupancy
  Mn  Mn0  1  0.59341342  0.81317316  0.25000000  1
  Mn  Mn1  1  0.40658658  0.18682684  0.75000000  1
  Mn  Mn2  1  0.24667337  0.50665325  0.25000000  1
  Mn  Mn3  1  0.75332663  0.49334675  0.75000000  1
  W  W0  1  0.90859317  0.18281366  0.25000000  1
  W  W1  1  0.09140683  0.81718634  0.75000000  1
