# generated using pymatgen
data_4363_Al4Sr2
_symmetry_space_group_name_H-M   'Pnnm'
_cell_length_a   5.79773224
_cell_length_b   3.33448045
_cell_length_c   8.47485536
_cell_angle_alpha   90.00000000
_cell_angle_beta   90.00000000
_cell_angle_gamma   90.00000000
_chemical_formula_structural   Al4Sr2
_chemical_formula_sum   'Al4 Sr2'
_cell_volume   163.83950401
loop_
 _symmetry_equiv_pos_site_id
 _symmetry_equiv_pos_as_xyz
  1  'x, y, z'
loop_
 _atom_type_symbol
  Al
  Sr
loop_
 _atom_site_type_symbol
 _atom_site_label
 _atom_site_symmetry_multiplicity
 _atom_site_fract_x
 _atom_site_fract_y
 _atom_site_fract_z
 _atom_site_occupancy
  Al  Al0  1  0.00000000  0.22312419  0.63203486  1
  Al  Al1  1  0.00000000  0.77687581  0.36796514  1
  Al  Al2  1  0.50000000  0.72312419  0.86796514  1
  Al  Al3  1  0.50000000  0.27687581  0.13203486  1
  Sr  Sr0  1  0.00000000  0.00000000  0.00000000  1
  Sr  Sr1  1  0.50000000  0.50000000  0.50000000  1
