# generated using pymatgen
data_4365_Ba2W2
_symmetry_space_group_name_H-M   'Imma'
_cell_length_a   6.75612685
_cell_length_b   6.74404760
_cell_length_c   3.68452773
_cell_angle_alpha   74.14707960
_cell_angle_beta   74.17616700
_cell_angle_gamma   51.49737572
_chemical_formula_structural   Ba2W2
_chemical_formula_sum   'Ba2 W2'
_cell_volume   125.20327694
loop_
 _symmetry_equiv_pos_site_id
 _symmetry_equiv_pos_as_xyz
  1  'x, y, z'
loop_
 _atom_type_symbol
  Ba
  W
loop_
 _atom_site_type_symbol
 _atom_site_label
 _atom_site_symmetry_multiplicity
 _atom_site_fract_x
 _atom_site_fract_y
 _atom_site_fract_z
 _atom_site_occupancy
  Ba  Ba0  1  0.10572766  0.93502442  0.97962396  1
  Ba  Ba1  1  0.81093901  0.64830892  0.77037604  1
  W  W0  1  0.52965861  0.35786169  0.55623985  1
  W  W1  1  0.38700806  0.22547165  0.19376015  1
