# generated using pymatgen
data_4368_Mo17Pd12
_symmetry_space_group_name_H-M   'I-43m'
_cell_length_a   8.41328124
_cell_length_b   8.41328124
_cell_length_c   8.41328124
_cell_angle_alpha   109.47122063
_cell_angle_beta   109.47122063
_cell_angle_gamma   109.47122063
_chemical_formula_structural   Mo17Pd12
_chemical_formula_sum   'Mo17 Pd12'
_cell_volume   458.43137177
loop_
 _symmetry_equiv_pos_site_id
 _symmetry_equiv_pos_as_xyz
  1  'x, y, z'
loop_
 _atom_type_symbol
  Mo
  Pd
loop_
 _atom_site_type_symbol
 _atom_site_label
 _atom_site_symmetry_multiplicity
 _atom_site_fract_x
 _atom_site_fract_y
 _atom_site_fract_z
 _atom_site_occupancy
  Mo  Mo0  1  0.68506868  0.27572150  0.68506868  1
  Mo  Mo1  1  0.40934718  0.72427850  0.40934718  1
  Mo  Mo2  1  0.31493132  0.00000000  0.59065282  1
  Mo  Mo3  1  0.59065282  0.00000000  0.31493132  1
  Mo  Mo4  1  0.31493132  0.59065282  0.00000000  1
  Mo  Mo5  1  0.59065282  0.31493132  0.00000000  1
  Mo  Mo6  1  0.40934718  0.40934718  0.72427850  1
  Mo  Mo7  1  0.68506868  0.68506868  0.27572150  1
  Mo  Mo8  1  1.00000000  0.59065282  0.31493132  1
  Mo  Mo9  1  0.00000000  0.31493132  0.59065282  1
  Mo  Mo10  1  0.27572150  0.68506868  0.68506868  1
  Mo  Mo11  1  0.72427850  0.40934718  0.40934718  1
  Mo  Mo12  1  1.00000000  0.37236997  0.00000000  1
  Mo  Mo13  1  0.62763003  0.62763003  0.62763003  1
  Mo  Mo14  1  1.00000000  0.00000000  0.37236997  1
  Mo  Mo15  1  0.37236997  0.00000000  0.00000000  1
  Mo  Mo16  1  0.00000000  0.00000000  0.00000000  1
  Pd  Pd0  1  0.19113444  0.81534872  0.19113444  1
  Pd  Pd1  1  0.37578571  0.18465128  0.37578571  1
  Pd  Pd2  1  0.80886556  0.00000000  0.62421429  1
  Pd  Pd3  1  0.62421429  0.00000000  0.80886556  1
  Pd  Pd4  1  0.80886556  0.62421429  0.00000000  1
  Pd  Pd5  1  0.62421429  0.80886556  0.00000000  1
  Pd  Pd6  1  0.37578571  0.37578571  0.18465128  1
  Pd  Pd7  1  0.19113444  0.19113444  0.81534872  1
  Pd  Pd8  1  1.00000000  0.62421429  0.80886556  1
  Pd  Pd9  1  1.00000000  0.80886556  0.62421429  1
  Pd  Pd10  1  0.81534872  0.19113444  0.19113444  1
  Pd  Pd11  1  0.18465128  0.37578571  0.37578571  1
