# generated using pymatgen
data_4369_Rh4Ge2
_symmetry_space_group_name_H-M   'Cmcm'
_cell_length_a   6.73041769
_cell_length_b   6.73041769
_cell_length_c   4.66822275
_cell_angle_alpha   90.00000000
_cell_angle_beta   90.00000000
_cell_angle_gamma   155.23267889
_chemical_formula_structural   Rh4Ge2
_chemical_formula_sum   'Ge2 Rh4'
_cell_volume   88.58934354
loop_
 _symmetry_equiv_pos_site_id
 _symmetry_equiv_pos_as_xyz
  1  'x, y, z'
loop_
 _atom_type_symbol
  Ge
  Rh
loop_
 _atom_site_type_symbol
 _atom_site_label
 _atom_site_symmetry_multiplicity
 _atom_site_fract_x
 _atom_site_fract_y
 _atom_site_fract_z
 _atom_site_occupancy
  Ge  Ge0  1  0.01287485  0.98712515  0.00000000  1
  Ge  Ge1  1  0.43156960  0.56843040  0.50000000  1
  Rh  Rh0  1  0.35272091  0.64727909  0.00000000  1
  Rh  Rh1  1  0.66711108  0.33288892  0.00000000  1
  Rh  Rh2  1  0.77733336  0.22266664  0.50000000  1
  Rh  Rh3  1  0.09172353  0.90827647  0.50000000  1
