# generated using pymatgen
data_4372_Au4Fe
_symmetry_space_group_name_H-M   'I4/m'
_cell_length_a   6.48596133
_cell_length_b   6.48596133
_cell_length_c   5.01507663
_cell_angle_alpha   49.71077943
_cell_angle_beta   49.71077928
_cell_angle_gamma   90.00000000
_chemical_formula_structural   Au4Fe
_chemical_formula_sum   'Au4 Fe1'
_cell_volume   85.35851832
loop_
 _symmetry_equiv_pos_site_id
 _symmetry_equiv_pos_as_xyz
  1  'x, y, z'
loop_
 _atom_type_symbol
  Au
  Fe
loop_
 _atom_site_type_symbol
 _atom_site_label
 _atom_site_symmetry_multiplicity
 _atom_site_fract_x
 _atom_site_fract_y
 _atom_site_fract_z
 _atom_site_occupancy
  Au  Au0  1  0.79445473  0.60340840  0.00000000  1
  Au  Au1  1  0.20554527  0.39659160  0.00000000  1
  Au  Au2  1  0.60340840  0.20554527  0.00000000  1
  Au  Au3  1  0.39659160  0.79445473  0.00000000  1
  Fe  Fe0  1  0.00000000  0.00000000  0.00000000  1
