# generated using pymatgen
data_4373_Ca2As6
_symmetry_space_group_name_H-M   'P-1'
_cell_length_a   5.90185143
_cell_length_b   5.85210706
_cell_length_c   5.96620290
_cell_angle_alpha   70.70672766
_cell_angle_beta   80.17789367
_cell_angle_gamma   75.77323038
_chemical_formula_structural   Ca2As6
_chemical_formula_sum   'As6 Ca2'
_cell_volume   187.62290381
loop_
 _symmetry_equiv_pos_site_id
 _symmetry_equiv_pos_as_xyz
  1  'x, y, z'
loop_
 _atom_type_symbol
  As
  Ca
loop_
 _atom_site_type_symbol
 _atom_site_label
 _atom_site_symmetry_multiplicity
 _atom_site_fract_x
 _atom_site_fract_y
 _atom_site_fract_z
 _atom_site_occupancy
  As  As0  1  0.01249458  0.77816270  0.01611435  1
  As  As1  1  0.58776478  0.77749881  0.09517133  1
  As  As2  1  0.85333055  0.18914311  0.40987049  1
  As  As3  1  0.14666976  0.81085709  0.59012936  1
  As  As4  1  0.41223553  0.22250139  0.90482853  1
  As  As5  1  0.98750548  0.22183654  0.98388590  1
  Ca  Ca0  1  0.31485933  0.34047638  0.37227395  1
  Ca  Ca1  1  0.68514098  0.65952382  0.62772591  1
