# generated using pymatgen
data_4379_Pt24W5
_symmetry_space_group_name_H-M   'I-43m'
_cell_length_a   8.46296332
_cell_length_b   8.46296332
_cell_length_c   8.46296332
_cell_angle_alpha   109.47122063
_cell_angle_beta   109.47122063
_cell_angle_gamma   109.47122063
_chemical_formula_structural   Pt24W5
_chemical_formula_sum   'Pt24 W5'
_cell_volume   466.60080605
loop_
 _symmetry_equiv_pos_site_id
 _symmetry_equiv_pos_as_xyz
  1  'x, y, z'
loop_
 _atom_type_symbol
  Pt
  W
loop_
 _atom_site_type_symbol
 _atom_site_label
 _atom_site_symmetry_multiplicity
 _atom_site_fract_x
 _atom_site_fract_y
 _atom_site_fract_z
 _atom_site_occupancy
  Pt  Pt0  1  1.00000000  0.81159034  0.62173970  1
  Pt  Pt1  1  1.00000000  0.62173970  0.81159034  1
  Pt  Pt2  1  0.18985063  0.37826030  0.37826030  1
  Pt  Pt3  1  0.81014937  0.18840966  0.18840966  1
  Pt  Pt4  1  0.81159034  0.00000000  0.62173970  1
  Pt  Pt5  1  0.62173970  0.00000000  0.81159034  1
  Pt  Pt6  1  0.18840966  0.81014937  0.18840966  1
  Pt  Pt7  1  0.37826030  0.18985063  0.37826030  1
  Pt  Pt8  1  0.18840966  0.18840966  0.81014937  1
  Pt  Pt9  1  0.37826030  0.37826030  0.18985063  1
  Pt  Pt10  1  0.62173970  0.81159034  0.00000000  1
  Pt  Pt11  1  0.81159034  0.62173970  0.00000000  1
  Pt  Pt12  1  0.00000000  0.30230637  0.57120105  1
  Pt  Pt13  1  0.00000000  0.57120105  0.30230637  1
  Pt  Pt14  1  0.73110533  0.42879895  0.42879895  1
  Pt  Pt15  1  0.26889467  0.69769363  0.69769363  1
  Pt  Pt16  1  0.30230637  0.00000000  0.57120105  1
  Pt  Pt17  1  0.57120105  0.00000000  0.30230637  1
  Pt  Pt18  1  0.69769363  0.26889467  0.69769363  1
  Pt  Pt19  1  0.42879895  0.73110533  0.42879895  1
  Pt  Pt20  1  0.69769363  0.69769363  0.26889467  1
  Pt  Pt21  1  0.42879895  0.42879895  0.73110533  1
  Pt  Pt22  1  0.57120105  0.30230637  0.00000000  1
  Pt  Pt23  1  0.30230637  0.57120105  0.00000000  1
  W  W0  1  0.00000000  0.00000000  0.33058483  1
  W  W1  1  0.00000000  0.33058483  0.00000000  1
  W  W2  1  0.66941517  0.66941517  0.66941517  1
  W  W3  1  0.33058483  0.00000000  0.00000000  1
  W  W4  1  0.00000000  0.00000000  0.00000000  1
