# generated using pymatgen
data_4380_Pt2As4
_symmetry_space_group_name_H-M   'Pnnm'
_cell_length_a   3.90271171
_cell_length_b   4.86175613
_cell_length_c   6.07720510
_cell_angle_alpha   90.00000000
_cell_angle_beta   90.00000000
_cell_angle_gamma   90.00000000
_chemical_formula_structural   Pt2As4
_chemical_formula_sum   'As4 Pt2'
_cell_volume   115.30908756
loop_
 _symmetry_equiv_pos_site_id
 _symmetry_equiv_pos_as_xyz
  1  'x, y, z'
loop_
 _atom_type_symbol
  As
  Pt
loop_
 _atom_site_type_symbol
 _atom_site_label
 _atom_site_symmetry_multiplicity
 _atom_site_fract_x
 _atom_site_fract_y
 _atom_site_fract_z
 _atom_site_occupancy
  As  As0  1  0.00000000  0.20417429  0.62135311  1
  As  As1  1  0.00000000  0.79582571  0.37864689  1
  As  As2  1  0.50000000  0.70417429  0.87864689  1
  As  As3  1  0.50000000  0.29582571  0.12135311  1
  Pt  Pt0  1  0.00000000  0.00000000  0.00000000  1
  Pt  Pt1  1  0.50000000  0.50000000  0.50000000  1
