# generated using pymatgen
data_4382_Ba3Ga5
_symmetry_space_group_name_H-M   'Cmmm'
_cell_length_a   6.97519736
_cell_length_b   6.97519736
_cell_length_c   5.27616171
_cell_angle_alpha   90.00000000
_cell_angle_beta   90.00000000
_cell_angle_gamma   107.00046395
_chemical_formula_structural   Ba3Ga5
_chemical_formula_sum   'Ba3 Ga5'
_cell_volume   245.48577920
loop_
 _symmetry_equiv_pos_site_id
 _symmetry_equiv_pos_as_xyz
  1  'x, y, z'
loop_
 _atom_type_symbol
  Ba
  Ga
loop_
 _atom_site_type_symbol
 _atom_site_label
 _atom_site_symmetry_multiplicity
 _atom_site_fract_x
 _atom_site_fract_y
 _atom_site_fract_z
 _atom_site_occupancy
  Ba  Ba0  1  0.50000000  0.50000000  0.00000000  1
  Ba  Ba1  1  0.77021819  0.22978181  0.50000000  1
  Ba  Ba2  1  0.22978181  0.77021819  0.50000000  1
  Ga  Ga0  1  0.00000000  0.00000000  0.00000000  1
  Ga  Ga1  1  0.00000000  0.50000000  0.00000000  1
  Ga  Ga2  1  0.50000000  1.00000000  0.00000000  1
  Ga  Ga3  1  0.24160986  0.24160986  0.50000000  1
  Ga  Ga4  1  0.75839014  0.75839014  0.50000000  1
