# generated using pymatgen
data_4383_V18W6
_symmetry_space_group_name_H-M   'Pmmn'
_cell_length_a   5.17834979
_cell_length_b   5.02768456
_cell_length_c   13.23633657
_cell_angle_alpha   90.00000000
_cell_angle_beta   90.00000000
_cell_angle_gamma   90.00000000
_chemical_formula_structural   V18W6
_chemical_formula_sum   'V18 W6'
_cell_volume   344.60946914
loop_
 _symmetry_equiv_pos_site_id
 _symmetry_equiv_pos_as_xyz
  1  'x, y, z'
loop_
 _atom_type_symbol
  V
  W
loop_
 _atom_site_type_symbol
 _atom_site_label
 _atom_site_symmetry_multiplicity
 _atom_site_fract_x
 _atom_site_fract_y
 _atom_site_fract_z
 _atom_site_occupancy
  V  V0  1  0.11819890  0.99878604  0.41862252  1
  V  V1  1  0.11819890  0.99878604  0.08137748  1
  V  V2  1  0.63931979  0.99908181  0.75000000  1
  V  V3  1  0.36068021  0.00091819  0.25000000  1
  V  V4  1  0.88180110  0.00121396  0.91862252  1
  V  V5  1  0.88180110  0.00121396  0.58137748  1
  V  V6  1  0.89167747  0.25000000  0.25000000  1
  V  V7  1  0.39048658  0.25000000  0.92460458  1
  V  V8  1  0.39048658  0.25000000  0.57539542  1
  V  V9  1  0.11819890  0.50121396  0.41862252  1
  V  V10  1  0.11819890  0.50121396  0.08137748  1
  V  V11  1  0.63931979  0.50091819  0.75000000  1
  V  V12  1  0.36068021  0.49908181  0.25000000  1
  V  V13  1  0.88180110  0.49878604  0.91862252  1
  V  V14  1  0.88180110  0.49878604  0.58137748  1
  V  V15  1  0.10832253  0.75000000  0.75000000  1
  V  V16  1  0.60951342  0.75000000  0.42460458  1
  V  V17  1  0.60951342  0.75000000  0.07539542  1
  W  W0  1  0.15105454  0.25000000  0.75000000  1
  W  W1  1  0.62685791  0.25000000  0.41100559  1
  W  W2  1  0.62685791  0.25000000  0.08899441  1
  W  W3  1  0.84894546  0.75000000  0.25000000  1
  W  W4  1  0.37314209  0.75000000  0.91100559  1
  W  W5  1  0.37314209  0.75000000  0.58899441  1
