# generated using pymatgen
data_4390_Ni12Sr4
_symmetry_space_group_name_H-M   'Pnma'
_cell_length_a   5.67769912
_cell_length_b   7.26696028
_cell_length_c   6.51906147
_cell_angle_alpha   90.00000000
_cell_angle_beta   90.00000000
_cell_angle_gamma   90.00000000
_chemical_formula_structural   Ni12Sr4
_chemical_formula_sum   'Ni12 Sr4'
_cell_volume   268.97395981
loop_
 _symmetry_equiv_pos_site_id
 _symmetry_equiv_pos_as_xyz
  1  'x, y, z'
loop_
 _atom_type_symbol
  Ni
  Sr
loop_
 _atom_site_type_symbol
 _atom_site_label
 _atom_site_symmetry_multiplicity
 _atom_site_fract_x
 _atom_site_fract_y
 _atom_site_fract_z
 _atom_site_occupancy
  Ni  Ni0  1  0.14903714  0.85817207  0.75000000  1
  Ni  Ni1  1  0.64903714  0.64182793  0.25000000  1
  Ni  Ni2  1  0.35096286  0.35817207  0.75000000  1
  Ni  Ni3  1  0.85096286  0.14182793  0.25000000  1
  Ni  Ni4  1  0.57975702  0.35496498  0.06731970  1
  Ni  Ni5  1  0.07975702  0.14503502  0.93268030  1
  Ni  Ni6  1  0.92024298  0.85496498  0.43268030  1
  Ni  Ni7  1  0.42024298  0.64503502  0.56731970  1
  Ni  Ni8  1  0.42024298  0.64503502  0.93268030  1
  Ni  Ni9  1  0.92024298  0.85496498  0.06731970  1
  Ni  Ni10  1  0.07975702  0.14503502  0.56731970  1
  Ni  Ni11  1  0.57975702  0.35496498  0.43268030  1
  Sr  Sr0  1  0.62137413  0.02080078  0.75000000  1
  Sr  Sr1  1  0.12137413  0.47919922  0.25000000  1
  Sr  Sr2  1  0.87862587  0.52080078  0.75000000  1
  Sr  Sr3  1  0.37862587  0.97919922  0.25000000  1
