# generated using pymatgen
data_4391_Ga13Nb5
_symmetry_space_group_name_H-M   'Cmmm'
_cell_length_a   20.35703539
_cell_length_b   3.79453483
_cell_length_c   3.78616543
_cell_angle_alpha   90.00000000
_cell_angle_beta   90.00000000
_cell_angle_gamma   95.34770430
_chemical_formula_structural   Ga13Nb5
_chemical_formula_sum   'Ga13 Nb5'
_cell_volume   291.19119920
loop_
 _symmetry_equiv_pos_site_id
 _symmetry_equiv_pos_as_xyz
  1  'x, y, z'
loop_
 _atom_type_symbol
  Ga
  Nb
loop_
 _atom_site_type_symbol
 _atom_site_label
 _atom_site_symmetry_multiplicity
 _atom_site_fract_x
 _atom_site_fract_y
 _atom_site_fract_z
 _atom_site_occupancy
  Ga  Ga0  1  0.10944662  0.05472331  0.00000000  1
  Ga  Ga1  1  0.33015788  0.16507894  0.00000000  1
  Ga  Ga2  1  0.77667125  0.38833563  0.00000000  1
  Ga  Ga3  1  0.22332875  0.61166437  0.00000000  1
  Ga  Ga4  1  0.66984212  0.83492106  0.00000000  1
  Ga  Ga5  1  0.89055338  0.94527669  0.00000000  1
  Ga  Ga6  1  0.00000000  0.00000000  0.50000000  1
  Ga  Ga7  1  0.45584129  0.22792064  0.50000000  1
  Ga  Ga8  1  0.67095148  0.33547574  0.50000000  1
  Ga  Ga9  1  0.89007979  0.44503990  0.50000000  1
  Ga  Ga10  1  0.10992021  0.55496010  0.50000000  1
  Ga  Ga11  1  0.32904852  0.66452426  0.50000000  1
  Ga  Ga12  1  0.54415871  0.77207936  0.50000000  1
  Nb  Nb0  1  0.56697397  0.28348698  0.00000000  1
  Nb  Nb1  1  0.00000000  0.50000000  0.00000000  1
  Nb  Nb2  1  0.43302603  0.71651302  0.00000000  1
  Nb  Nb3  1  0.21656853  0.10828426  0.50000000  1
  Nb  Nb4  1  0.78343147  0.89171574  0.50000000  1
