# generated using pymatgen
data_4392_Eu4I8
_symmetry_space_group_name_H-M   'P2_1/c'
_cell_length_a   7.66724771
_cell_length_b   8.13516400
_cell_length_c   7.88315149
_cell_angle_alpha   90.00000000
_cell_angle_beta   99.34739948
_cell_angle_gamma   90.00000000
_chemical_formula_structural   Eu4I8
_chemical_formula_sum   'Eu4 I8'
_cell_volume   485.17716622
loop_
 _symmetry_equiv_pos_site_id
 _symmetry_equiv_pos_as_xyz
  1  'x, y, z'
loop_
 _atom_type_symbol
  Eu
  I
loop_
 _atom_site_type_symbol
 _atom_site_label
 _atom_site_symmetry_multiplicity
 _atom_site_fract_x
 _atom_site_fract_y
 _atom_site_fract_z
 _atom_site_occupancy
  Eu  Eu0  1  0.78669187  0.94579158  0.19197632  1
  Eu  Eu1  1  0.21330846  0.44579185  0.30802447  1
  Eu  Eu2  1  0.78669216  0.55420760  0.69197657  1
  Eu  Eu3  1  0.21330725  0.05420788  0.80802342  1
  I  I0  1  0.07235720  0.73199504  0.00654515  1
  I  I1  1  0.41047211  0.11700317  0.20726943  1
  I  I2  1  0.58952802  0.61700289  0.29273008  1
  I  I3  1  0.92764293  0.23199531  0.49345436  1
  I  I4  1  0.07235750  0.76800537  0.50654540  1
  I  I5  1  0.41047241  0.38299779  0.70726968  1
  I  I6  1  0.58952831  0.88299752  0.79273033  1
  I  I7  1  0.92764323  0.26800565  0.99345461  1
