# generated using pymatgen
data_4396_Au2Fe4
_symmetry_space_group_name_H-M   'I4/mcm'
_cell_length_a   4.97328888
_cell_length_b   4.97328888
_cell_length_c   4.97328888
_cell_angle_alpha   105.75526452
_cell_angle_beta   105.75526452
_cell_angle_gamma   117.18997089
_chemical_formula_structural   Au2Fe4
_chemical_formula_sum   'Au2 Fe4'
_cell_volume   93.38592164
loop_
 _symmetry_equiv_pos_site_id
 _symmetry_equiv_pos_as_xyz
  1  'x, y, z'
loop_
 _atom_type_symbol
  Au
  Fe
loop_
 _atom_site_type_symbol
 _atom_site_label
 _atom_site_symmetry_multiplicity
 _atom_site_fract_x
 _atom_site_fract_y
 _atom_site_fract_z
 _atom_site_occupancy
  Au  Au0  1  0.25000000  0.25000000  0.00000000  1
  Au  Au1  1  0.75000000  0.75000000  0.00000000  1
  Fe  Fe0  1  0.13521967  0.36478033  0.50000000  1
  Fe  Fe1  1  0.36478033  0.86478033  0.22956065  1
  Fe  Fe2  1  0.63521967  0.13521967  0.77043935  1
  Fe  Fe3  1  0.86478033  0.63521967  0.50000000  1
