# generated using pymatgen
data_4399_NbNi2
_symmetry_space_group_name_H-M   'I4/mmm'
_cell_length_a   3.15661641
_cell_length_b   7.88618315
_cell_length_c   3.19608574
_cell_angle_alpha   90.00000000
_cell_angle_beta   90.00000000
_cell_angle_gamma   90.00000000
_chemical_formula_structural   NbNi2
_chemical_formula_sum   'Nb2 Ni4'
_cell_volume   79.56225622
loop_
 _symmetry_equiv_pos_site_id
 _symmetry_equiv_pos_as_xyz
  1  'x, y, z'
loop_
 _atom_type_symbol
  Nb
  Ni
loop_
 _atom_site_type_symbol
 _atom_site_label
 _atom_site_symmetry_multiplicity
 _atom_site_fract_x
 _atom_site_fract_y
 _atom_site_fract_z
 _atom_site_occupancy
  Nb  Nb0  1  0.00000000  0.00000000  0.00000000  1
  Nb  Nb1  1  0.50000000  0.50000000  0.50000000  1
  Ni  Ni0  1  0.99898994  0.33278041  0.00000000  1
  Ni  Ni1  1  0.50101006  0.83278041  0.50000000  1
  Ni  Ni2  1  0.49898994  0.16721959  0.50000000  1
  Ni  Ni3  1  0.00101006  0.66721959  0.00000000  1
