# generated using pymatgen
data_4404_Al2Cu4
_symmetry_space_group_name_H-M   'Cmcm'
_cell_length_a   6.72204046
_cell_length_b   6.72204046
_cell_length_c   4.36723778
_cell_angle_alpha   90.00000000
_cell_angle_beta   90.00000000
_cell_angle_gamma   156.74658894
_chemical_formula_structural   Al2Cu4
_chemical_formula_sum   'Al2 Cu4'
_cell_volume   77.90846311
loop_
 _symmetry_equiv_pos_site_id
 _symmetry_equiv_pos_as_xyz
  1  'x, y, z'
loop_
 _atom_type_symbol
  Al
  Cu
loop_
 _atom_site_type_symbol
 _atom_site_label
 _atom_site_symmetry_multiplicity
 _atom_site_fract_x
 _atom_site_fract_y
 _atom_site_fract_z
 _atom_site_occupancy
  Al  Al0  1  0.00653465  0.99346535  0.00000000  1
  Al  Al1  1  0.43790980  0.56209020  0.50000000  1
  Cu  Cu0  1  0.33563649  0.66436351  0.00000000  1
  Cu  Cu1  1  0.66962498  0.33037502  0.00000000  1
  Cu  Cu2  1  0.77481946  0.22518054  0.50000000  1
  Cu  Cu3  1  0.10880795  0.89119205  0.50000000  1
