# generated using pymatgen
data_4410_CeCu5
_symmetry_space_group_name_H-M   'P6/mmm'
_cell_length_a   5.15747102
_cell_length_b   5.15747182
_cell_length_c   4.11516855
_cell_angle_alpha   90.00000000
_cell_angle_beta   90.00000000
_cell_angle_gamma   119.99971859
_chemical_formula_structural   CeCu5
_chemical_formula_sum   'Ce1 Cu5'
_cell_volume   94.79668511
loop_
 _symmetry_equiv_pos_site_id
 _symmetry_equiv_pos_as_xyz
  1  'x, y, z'
loop_
 _atom_type_symbol
  Ce
  Cu
loop_
 _atom_site_type_symbol
 _atom_site_label
 _atom_site_symmetry_multiplicity
 _atom_site_fract_x
 _atom_site_fract_y
 _atom_site_fract_z
 _atom_site_occupancy
  Ce  Ce0  1  0.00001831  0.00001839  0.00000000  1
  Cu  Cu0  1  0.66668874  0.33337752  0.00000000  1
  Cu  Cu1  1  0.33337742  0.66668801  0.00000000  1
  Cu  Cu2  1  0.50000484  0.00000751  0.50000106  1
  Cu  Cu3  1  0.50000234  0.50000102  0.50000106  1
  Cu  Cu4  1  0.00000781  0.50000440  0.50000106  1
