# generated using pymatgen
data_4412_NbNi2
_symmetry_space_group_name_H-M   'I4/mmm'
_cell_length_a   3.16733504
_cell_length_b   4.53086496
_cell_length_c   3.16733504
_cell_angle_alpha   69.54150656
_cell_angle_beta   90.00000000
_cell_angle_gamma   110.45849344
_chemical_formula_structural   NbNi2
_chemical_formula_sum   'Nb1 Ni2'
_cell_volume   39.51228549
loop_
 _symmetry_equiv_pos_site_id
 _symmetry_equiv_pos_as_xyz
  1  'x, y, z'
loop_
 _atom_type_symbol
  Nb
  Ni
loop_
 _atom_site_type_symbol
 _atom_site_label
 _atom_site_symmetry_multiplicity
 _atom_site_fract_x
 _atom_site_fract_y
 _atom_site_fract_z
 _atom_site_occupancy
  Nb  Nb0  1  0.00000000  0.00000000  0.00000000  1
  Ni  Ni0  1  0.33323403  0.66646805  0.66676597  1
  Ni  Ni1  1  0.66676597  0.33353195  0.33323403  1
