# generated using pymatgen
data_4413_MoW3
_symmetry_space_group_name_H-M   'Pmm2'
_cell_length_a   2.75703936
_cell_length_b   4.94307086
_cell_length_c   4.81498412
_cell_angle_alpha   90.00000000
_cell_angle_beta   90.00000000
_cell_angle_gamma   90.00000000
_chemical_formula_structural   MoW3
_chemical_formula_sum   'Mo1 W3'
_cell_volume   65.61976361
loop_
 _symmetry_equiv_pos_site_id
 _symmetry_equiv_pos_as_xyz
  1  'x, y, z'
loop_
 _atom_type_symbol
  Mo
  W
loop_
 _atom_site_type_symbol
 _atom_site_label
 _atom_site_symmetry_multiplicity
 _atom_site_fract_x
 _atom_site_fract_y
 _atom_site_fract_z
 _atom_site_occupancy
  Mo  Mo0  1  0.00000000  0.00000000  0.00165249  1
  W  W0  1  0.00000000  0.50000000  0.33326727  1
  W  W1  1  0.50000000  0.00000000  0.49941090  1
  W  W2  1  0.50000000  0.50000000  0.83233600  1
