# generated using pymatgen
data_4419_Ag4Sr2
_symmetry_space_group_name_H-M   'Fd -3 m'
_cell_length_a   5.95629887
_cell_length_b   5.95629887
_cell_length_c   5.95629887
_cell_angle_alpha   60.00000000
_cell_angle_beta   60.00000000
_cell_angle_gamma   60.00000000
_chemical_formula_structural   Ag4Sr2
_chemical_formula_sum   'Ag4 Sr2'
_cell_volume   149.42196572
loop_
 _symmetry_equiv_pos_site_id
 _symmetry_equiv_pos_as_xyz
  1  'x, y, z'
loop_
 _atom_type_symbol
  Ag
  Sr
loop_
 _atom_site_type_symbol
 _atom_site_label
 _atom_site_symmetry_multiplicity
 _atom_site_fract_x
 _atom_site_fract_y
 _atom_site_fract_z
 _atom_site_occupancy
  Ag  Ag0  1  0.50000000  0.50000000  0.50000000  1
  Ag  Ag1  1  0.00000000  0.50000000  0.00000000  1
  Ag  Ag2  1  0.50000000  0.00000000  0.00000000  1
  Ag  Ag3  1  0.50000000  0.50000000  0.00000000  1
  Sr  Sr0  1  0.87500000  0.87500000  0.37500000  1
  Sr  Sr1  1  0.12500000  0.12500000  0.62500000  1
