# generated using pymatgen
data_4420_Au3P4
_symmetry_space_group_name_H-M   'I4/mmm'
_cell_length_a   13.12150099
_cell_length_b   13.12150099
_cell_length_c   13.12150099
_cell_angle_alpha   166.22109816
_cell_angle_beta   166.22109816
_cell_angle_gamma   19.53385273
_chemical_formula_structural   Au3P4
_chemical_formula_sum   'Au3 P4'
_cell_volume   128.14441178
loop_
 _symmetry_equiv_pos_site_id
 _symmetry_equiv_pos_as_xyz
  1  'x, y, z'
loop_
 _atom_type_symbol
  Au
  P
loop_
 _atom_site_type_symbol
 _atom_site_label
 _atom_site_symmetry_multiplicity
 _atom_site_fract_x
 _atom_site_fract_y
 _atom_site_fract_z
 _atom_site_occupancy
  Au  Au0  1  0.00000000  0.00000000  0.00000000  1
  Au  Au1  1  0.71356714  0.71356714  0.00000000  1
  Au  Au2  1  0.28643286  0.28643286  0.00000000  1
  P  P0  1  0.90842216  0.90842216  0.00000000  1
  P  P1  1  0.09157784  0.09157784  0.00000000  1
  P  P2  1  0.62118025  0.62118025  0.00000000  1
  P  P3  1  0.37881975  0.37881975  0.00000000  1
