# generated using pymatgen
data_4421_Ir2Mn44
_symmetry_space_group_name_H-M   'Fd -3 m'
_cell_length_a   9.01968479
_cell_length_b   9.01968479
_cell_length_c   9.01968479
_cell_angle_alpha   60.00000000
_cell_angle_beta   60.00000000
_cell_angle_gamma   60.00000000
_chemical_formula_structural   Ir2Mn44
_chemical_formula_sum   'Ir2 Mn44'
_cell_volume   518.87062440
loop_
 _symmetry_equiv_pos_site_id
 _symmetry_equiv_pos_as_xyz
  1  'x, y, z'
loop_
 _atom_type_symbol
  Ir
  Mn
loop_
 _atom_site_type_symbol
 _atom_site_label
 _atom_site_symmetry_multiplicity
 _atom_site_fract_x
 _atom_site_fract_y
 _atom_site_fract_z
 _atom_site_occupancy
  Ir  Ir0  1  0.87500000  0.87500000  0.37500000  1
  Ir  Ir1  1  0.12500000  0.12500000  0.62500000  1
  Mn  Mn0  1  0.20012195  0.67982707  0.44022391  1
  Mn  Mn1  1  0.94022391  0.67982707  0.70012195  1
  Mn  Mn2  1  0.67982707  0.20012195  0.17982707  1
  Mn  Mn3  1  0.67982707  0.94022391  0.17982707  1
  Mn  Mn4  1  0.67982707  0.20012195  0.44022391  1
  Mn  Mn5  1  0.67982707  0.94022391  0.70012195  1
  Mn  Mn6  1  0.94022391  0.67982707  0.17982707  1
  Mn  Mn7  1  0.20012195  0.67982707  0.17982707  1
  Mn  Mn8  1  0.67982707  0.67982707  0.44022391  1
  Mn  Mn9  1  0.67982707  0.67982707  0.70012195  1
  Mn  Mn10  1  0.20012195  0.94022391  0.17982707  1
  Mn  Mn11  1  0.94022391  0.20012195  0.17982707  1
  Mn  Mn12  1  0.05977609  0.32017293  0.29987805  1
  Mn  Mn13  1  0.79987805  0.32017293  0.55977609  1
  Mn  Mn14  1  0.32017293  0.79987805  0.82017293  1
  Mn  Mn15  1  0.32017293  0.05977609  0.82017293  1
  Mn  Mn16  1  0.05977609  0.79987805  0.82017293  1
  Mn  Mn17  1  0.79987805  0.05977609  0.82017293  1
  Mn  Mn18  1  0.32017293  0.32017293  0.55977609  1
  Mn  Mn19  1  0.32017293  0.32017293  0.29987805  1
  Mn  Mn20  1  0.05977609  0.32017293  0.82017293  1
  Mn  Mn21  1  0.79987805  0.32017293  0.82017293  1
  Mn  Mn22  1  0.32017293  0.05977609  0.29987805  1
  Mn  Mn23  1  0.32017293  0.79987805  0.55977609  1
  Mn  Mn24  1  0.51406978  0.23593022  0.73593022  1
  Mn  Mn25  1  0.23593022  0.51406978  0.01406978  1
  Mn  Mn26  1  0.51406978  0.51406978  0.73593022  1
  Mn  Mn27  1  0.23593022  0.23593022  0.01406978  1
  Mn  Mn28  1  0.23593022  0.51406978  0.73593022  1
  Mn  Mn29  1  0.51406978  0.23593022  0.01406978  1
  Mn  Mn30  1  0.76406978  0.76406978  0.98593022  1
  Mn  Mn31  1  0.48593022  0.48593022  0.26406978  1
  Mn  Mn32  1  0.76406978  0.48593022  0.98593022  1
  Mn  Mn33  1  0.48593022  0.76406978  0.26406978  1
  Mn  Mn34  1  0.76406978  0.48593022  0.26406978  1
  Mn  Mn35  1  0.48593022  0.76406978  0.98593022  1
  Mn  Mn36  1  0.00000000  0.00000000  0.00000000  1
  Mn  Mn37  1  0.50000000  0.00000000  0.50000000  1
  Mn  Mn38  1  0.00000000  0.00000000  0.50000000  1
  Mn  Mn39  1  1.00000000  0.50000000  0.50000000  1
  Mn  Mn40  1  0.50000000  0.50000000  0.50000000  1
  Mn  Mn41  1  0.00000000  0.50000000  0.00000000  1
  Mn  Mn42  1  0.50000000  0.50000000  1.00000000  1
  Mn  Mn43  1  0.50000000  0.00000000  1.00000000  1
