# generated using pymatgen
data_4422_PAs3
_symmetry_space_group_name_H-M   'Immm'
_cell_length_a   5.83529128
_cell_length_b   5.83529128
_cell_length_c   5.83529128
_cell_angle_alpha   145.10989743
_cell_angle_beta   137.44668677
_cell_angle_gamma   56.15838112
_chemical_formula_structural   PAs3
_chemical_formula_sum   'As3 P1'
_cell_volume   76.28417356
loop_
 _symmetry_equiv_pos_site_id
 _symmetry_equiv_pos_as_xyz
  1  'x, y, z'
loop_
 _atom_type_symbol
  As
  P
loop_
 _atom_site_type_symbol
 _atom_site_label
 _atom_site_symmetry_multiplicity
 _atom_site_fract_x
 _atom_site_fract_y
 _atom_site_fract_z
 _atom_site_occupancy
  As  As0  1  0.31062380  0.31062380  1.00000000  1
  As  As1  1  0.68937620  0.68937620  1.00000000  1
  As  As2  1  0.00000000  0.50000000  0.50000000  1
  P  P0  1  0.50000000  1.00000000  0.50000000  1
