# generated using pymatgen
data_4424_Ni3P
_symmetry_space_group_name_H-M   'Immm'
_cell_length_a   4.55431443
_cell_length_b   4.55431443
_cell_length_c   3.88089444
_cell_angle_alpha   65.00716925
_cell_angle_beta   65.00716925
_cell_angle_gamma   37.26255473
_chemical_formula_structural   Ni3P
_chemical_formula_sum   'Ni3 P1'
_cell_volume   43.62540954
loop_
 _symmetry_equiv_pos_site_id
 _symmetry_equiv_pos_as_xyz
  1  'x, y, z'
loop_
 _atom_type_symbol
  Ni
  P
loop_
 _atom_site_type_symbol
 _atom_site_label
 _atom_site_symmetry_multiplicity
 _atom_site_fract_x
 _atom_site_fract_y
 _atom_site_fract_z
 _atom_site_occupancy
  Ni  Ni0  1  0.50000000  0.50000000  0.50000000  1
  Ni  Ni1  1  0.71509801  0.71509801  0.78498221  1
  Ni  Ni2  1  0.28490199  0.28490199  0.21501779  1
  P  P0  1  0.00000000  0.00000000  0.00000000  1
