# generated using pymatgen
data_4427_Pd6P2
_symmetry_space_group_name_H-M   'Cmcm'
_cell_length_a   5.37012794
_cell_length_b   5.37012794
_cell_length_c   4.56384627
_cell_angle_alpha   90.00000000
_cell_angle_beta   90.00000000
_cell_angle_gamma   93.98659383
_chemical_formula_structural   Pd6P2
_chemical_formula_sum   'P2 Pd6'
_cell_volume   131.29499042
loop_
 _symmetry_equiv_pos_site_id
 _symmetry_equiv_pos_as_xyz
  1  'x, y, z'
loop_
 _atom_type_symbol
  P
  Pd
loop_
 _atom_site_type_symbol
 _atom_site_label
 _atom_site_symmetry_multiplicity
 _atom_site_fract_x
 _atom_site_fract_y
 _atom_site_fract_z
 _atom_site_occupancy
  P  P0  1  0.42870160  0.57129840  0.25000000  1
  P  P1  1  0.57129840  0.42870160  0.75000000  1
  Pd  Pd0  1  0.87237831  0.12762169  0.75000000  1
  Pd  Pd1  1  0.12762169  0.87237831  0.25000000  1
  Pd  Pd2  1  0.95391123  0.64004897  0.75000000  1
  Pd  Pd3  1  0.04608877  0.35995103  0.25000000  1
  Pd  Pd4  1  0.35995103  0.04608877  0.75000000  1
  Pd  Pd5  1  0.64004897  0.95391123  0.25000000  1
