# generated using pymatgen
data_4428_FeMn5
_symmetry_space_group_name_H-M   'F-43m'
_cell_length_a   4.59195080
_cell_length_b   4.59195080
_cell_length_c   4.59195080
_cell_angle_alpha   60.00000000
_cell_angle_beta   60.00000000
_cell_angle_gamma   60.00000000
_chemical_formula_structural   FeMn5
_chemical_formula_sum   'Fe1 Mn5'
_cell_volume   68.46627198
loop_
 _symmetry_equiv_pos_site_id
 _symmetry_equiv_pos_as_xyz
  1  'x, y, z'
loop_
 _atom_type_symbol
  Fe
  Mn
loop_
 _atom_site_type_symbol
 _atom_site_label
 _atom_site_symmetry_multiplicity
 _atom_site_fract_x
 _atom_site_fract_y
 _atom_site_fract_z
 _atom_site_occupancy
  Fe  Fe0  1  0.00000000  0.00000000  0.00000000  1
  Mn  Mn0  1  0.75000000  0.75000000  0.75000000  1
  Mn  Mn1  1  0.37483742  0.87548775  0.37483742  1
  Mn  Mn2  1  0.87548775  0.37483742  0.37483742  1
  Mn  Mn3  1  0.37483742  0.37483742  0.37483742  1
  Mn  Mn4  1  0.37483742  0.37483742  0.87548775  1
