# generated using pymatgen
data_4429_NaSb3
_symmetry_space_group_name_H-M   'Immm'
_cell_length_a   6.32014293
_cell_length_b   6.32014293
_cell_length_c   6.32014293
_cell_angle_alpha   143.24032881
_cell_angle_beta   132.17738154
_cell_angle_gamma   61.79804084
_chemical_formula_structural   NaSb3
_chemical_formula_sum   'Na1 Sb3'
_cell_volume   110.74145530
loop_
 _symmetry_equiv_pos_site_id
 _symmetry_equiv_pos_as_xyz
  1  'x, y, z'
loop_
 _atom_type_symbol
  Na
  Sb
loop_
 _atom_site_type_symbol
 _atom_site_label
 _atom_site_symmetry_multiplicity
 _atom_site_fract_x
 _atom_site_fract_y
 _atom_site_fract_z
 _atom_site_occupancy
  Na  Na0  1  0.50000000  0.00000000  0.50000000  1
  Sb  Sb0  1  0.22245862  0.22245862  1.00000000  1
  Sb  Sb1  1  0.77754138  0.77754138  1.00000000  1
  Sb  Sb2  1  0.00000000  0.50000000  0.50000000  1
