# generated using pymatgen
data_4432_In11Sr3
_symmetry_space_group_name_H-M   'Immm'
_cell_length_a   4.96573200
_cell_length_b   9.51880775
_cell_length_c   9.51880775
_cell_angle_alpha   99.34244435
_cell_angle_beta   105.11978705
_cell_angle_gamma   105.11978705
_chemical_formula_structural   In11Sr3
_chemical_formula_sum   'In11 Sr3'
_cell_volume   406.30898899
loop_
 _symmetry_equiv_pos_site_id
 _symmetry_equiv_pos_as_xyz
  1  'x, y, z'
loop_
 _atom_type_symbol
  In
  Sr
loop_
 _atom_site_type_symbol
 _atom_site_label
 _atom_site_symmetry_multiplicity
 _atom_site_fract_x
 _atom_site_fract_y
 _atom_site_fract_z
 _atom_site_occupancy
  In  In0  1  0.37206777  0.71408881  0.03004674  1
  In  In1  1  0.27612704  0.42423083  0.12802325  1
  In  In2  1  0.62793160  0.96995264  0.28591057  1
  In  In3  1  0.80467260  0.30467184  0.30467184  1
  In  In4  1  0.27612704  0.12802325  0.42423083  1
  In  In5  1  0.49999969  0.49999969  0.49999969  1
  In  In6  1  0.72387233  0.87197612  0.57576855  1
  In  In7  1  0.19532766  0.69532842  0.69532842  1
  In  In8  1  0.37206777  0.03004674  0.71408881  1
  In  In9  1  0.72387233  0.57576855  0.87197612  1
  In  In10  1  0.62793160  0.28591057  0.96995264  1
  Sr  Sr0  1  0.00000000  0.00000000  0.00000000  1
  Sr  Sr1  1  0.99999893  0.68976348  0.31023590  1
  Sr  Sr2  1  0.99999893  0.31023590  0.68976348  1
