# generated using pymatgen
data_4433_BaIn3
_symmetry_space_group_name_H-M   'P4/mmm'
_cell_length_a   4.01879786
_cell_length_b   4.01879786
_cell_length_c   7.88281102
_cell_angle_alpha   90.00000000
_cell_angle_beta   90.00000000
_cell_angle_gamma   90.00000000
_chemical_formula_structural   BaIn3
_chemical_formula_sum   'Ba1 In3'
_cell_volume   127.31320161
loop_
 _symmetry_equiv_pos_site_id
 _symmetry_equiv_pos_as_xyz
  1  'x, y, z'
loop_
 _atom_type_symbol
  Ba
  In
loop_
 _atom_site_type_symbol
 _atom_site_label
 _atom_site_symmetry_multiplicity
 _atom_site_fract_x
 _atom_site_fract_y
 _atom_site_fract_z
 _atom_site_occupancy
  Ba  Ba0  1  0.00000000  0.00000000  0.00000000  1
  In  In0  1  0.50000000  0.50000000  0.30034050  1
  In  In1  1  0.00000000  0.00000000  0.50000000  1
  In  In2  1  0.50000000  0.50000000  0.69965950  1
