# generated using pymatgen
data_4435_Na2Pd6
_symmetry_space_group_name_H-M   'I4/mmm'
_cell_length_a   4.00867249
_cell_length_b   4.00867249
_cell_length_c   8.59895463
_cell_angle_alpha   76.52089803
_cell_angle_beta   76.52089803
_cell_angle_gamma   90.00000000
_chemical_formula_structural   Na2Pd6
_chemical_formula_sum   'Na2 Pd6'
_cell_volume   130.45715077
loop_
 _symmetry_equiv_pos_site_id
 _symmetry_equiv_pos_as_xyz
  1  'x, y, z'
loop_
 _atom_type_symbol
  Na
  Pd
loop_
 _atom_site_type_symbol
 _atom_site_label
 _atom_site_symmetry_multiplicity
 _atom_site_fract_x
 _atom_site_fract_y
 _atom_site_fract_z
 _atom_site_occupancy
  Na  Na0  1  0.62428554  0.62428554  0.75142892  1
  Na  Na1  1  0.37571446  0.37571446  0.24857108  1
  Pd  Pd0  1  0.87569008  0.87569008  0.24861985  1
  Pd  Pd1  1  0.75000000  0.25000000  0.50000000  1
  Pd  Pd2  1  0.00000000  0.50000000  0.00000000  1
  Pd  Pd3  1  0.12430992  0.12430992  0.75138015  1
  Pd  Pd4  1  0.25000000  0.75000000  0.50000000  1
  Pd  Pd5  1  0.50000000  0.00000000  0.00000000  1
