# generated using pymatgen
data_4437_Ga8Pt16
_symmetry_space_group_name_H-M   'Pmma'
_cell_length_a   3.96443972
_cell_length_b   5.56956777
_cell_length_c   16.69890162
_cell_angle_alpha   90.00000000
_cell_angle_beta   90.00000000
_cell_angle_gamma   90.00000000
_chemical_formula_structural   Ga8Pt16
_chemical_formula_sum   'Ga8 Pt16'
_cell_volume   368.71534957
loop_
 _symmetry_equiv_pos_site_id
 _symmetry_equiv_pos_as_xyz
  1  'x, y, z'
loop_
 _atom_type_symbol
  Ga
  Pt
loop_
 _atom_site_type_symbol
 _atom_site_label
 _atom_site_symmetry_multiplicity
 _atom_site_fract_x
 _atom_site_fract_y
 _atom_site_fract_z
 _atom_site_occupancy
  Ga  Ga0  1  0.50000000  0.00000000  0.00000000  1
  Ga  Ga1  1  0.50000000  0.00000000  0.50000000  1
  Ga  Ga2  1  0.00000000  0.20508635  0.25000000  1
  Ga  Ga3  1  0.00000000  0.79491365  0.75000000  1
  Ga  Ga4  1  0.00000000  0.68295327  0.09293600  1
  Ga  Ga5  1  0.00000000  0.68295327  0.40706400  1
  Ga  Ga6  1  0.00000000  0.31704673  0.90706400  1
  Ga  Ga7  1  0.00000000  0.31704673  0.59293600  1
  Pt  Pt0  1  0.50000000  0.50000000  0.00000000  1
  Pt  Pt1  1  0.50000000  0.50000000  0.50000000  1
  Pt  Pt2  1  0.00000000  0.73189782  0.25000000  1
  Pt  Pt3  1  0.00000000  0.26810218  0.75000000  1
  Pt  Pt4  1  0.00000000  0.20422712  0.06920867  1
  Pt  Pt5  1  0.00000000  0.20422712  0.43079133  1
  Pt  Pt6  1  0.00000000  0.79577288  0.93079133  1
  Pt  Pt7  1  0.00000000  0.79577288  0.56920867  1
  Pt  Pt8  1  0.50000000  0.43955199  0.16816845  1
  Pt  Pt9  1  0.50000000  0.43955199  0.33183155  1
  Pt  Pt10  1  0.50000000  0.56044801  0.83183155  1
  Pt  Pt11  1  0.50000000  0.56044801  0.66816845  1
  Pt  Pt12  1  0.50000000  0.94611332  0.15529935  1
  Pt  Pt13  1  0.50000000  0.94611332  0.34470065  1
  Pt  Pt14  1  0.50000000  0.05388668  0.84470065  1
  Pt  Pt15  1  0.50000000  0.05388668  0.65529935  1
