# generated using pymatgen
data_4442_Mn2Ta4
_symmetry_space_group_name_H-M   'I4/mcm'
_cell_length_a   5.06510881
_cell_length_b   5.04700203
_cell_length_c   5.04700203
_cell_angle_alpha   104.58387678
_cell_angle_beta   120.11874891
_cell_angle_gamma   59.88125109
_chemical_formula_structural   Mn2Ta4
_chemical_formula_sum   'Mn2 Ta4'
_cell_volume   96.53285832
loop_
 _symmetry_equiv_pos_site_id
 _symmetry_equiv_pos_as_xyz
  1  'x, y, z'
loop_
 _atom_type_symbol
  Mn
  Ta
loop_
 _atom_site_type_symbol
 _atom_site_label
 _atom_site_symmetry_multiplicity
 _atom_site_fract_x
 _atom_site_fract_y
 _atom_site_fract_z
 _atom_site_occupancy
  Mn  Mn0  1  0.25000000  0.00000000  0.00000000  1
  Mn  Mn1  1  0.75000000  0.00000000  0.00000000  1
  Ta  Ta0  1  0.16366781  0.17266437  0.50000000  1
  Ta  Ta1  1  0.33633219  0.50000000  0.17266437  1
  Ta  Ta2  1  0.66366781  0.50000000  0.82733563  1
  Ta  Ta3  1  0.83633219  0.82733563  0.50000000  1
