# generated using pymatgen
data_4443_Nb4V
_symmetry_space_group_name_H-M   'I4/mmm'
_cell_length_a   3.76432800
_cell_length_b   7.19361890
_cell_length_c   3.76432800
_cell_angle_alpha   74.83239294
_cell_angle_beta   90.00000000
_cell_angle_gamma   105.16760706
_chemical_formula_structural   Nb4V
_chemical_formula_sum   'Nb4 V1'
_cell_volume   94.69983090
loop_
 _symmetry_equiv_pos_site_id
 _symmetry_equiv_pos_as_xyz
  1  'x, y, z'
loop_
 _atom_type_symbol
  Nb
  V
loop_
 _atom_site_type_symbol
 _atom_site_label
 _atom_site_symmetry_multiplicity
 _atom_site_fract_x
 _atom_site_fract_y
 _atom_site_fract_z
 _atom_site_occupancy
  Nb  Nb0  1  0.25000000  0.50000000  0.25000000  1
  Nb  Nb1  1  0.41439229  0.82878458  0.58560771  1
  Nb  Nb2  1  0.58560771  0.17121542  0.41439229  1
  Nb  Nb3  1  0.75000000  0.50000000  0.75000000  1
  V  V0  1  0.00000000  0.00000000  0.00000000  1
