# generated using pymatgen
data_4447_V12W4
_symmetry_space_group_name_H-M   'Pnma'
_cell_length_a   5.10708651
_cell_length_b   8.85412900
_cell_length_c   5.10639926
_cell_angle_alpha   90.00000000
_cell_angle_beta   90.00000000
_cell_angle_gamma   90.00000000
_chemical_formula_structural   V12W4
_chemical_formula_sum   'V12 W4'
_cell_volume   230.90526102
loop_
 _symmetry_equiv_pos_site_id
 _symmetry_equiv_pos_as_xyz
  1  'x, y, z'
loop_
 _atom_type_symbol
  V
  W
loop_
 _atom_site_type_symbol
 _atom_site_label
 _atom_site_symmetry_multiplicity
 _atom_site_fract_x
 _atom_site_fract_y
 _atom_site_fract_z
 _atom_site_occupancy
  V  V0  1  0.98846617  0.25000000  0.79422210  1
  V  V1  1  0.25205310  0.99744992  0.44286096  1
  V  V2  1  0.25205310  0.50255008  0.44286096  1
  V  V3  1  0.24794690  0.49744992  0.94286096  1
  V  V4  1  0.24794690  0.00255008  0.94286096  1
  V  V5  1  0.51153383  0.75000000  0.29422210  1
  V  V6  1  0.48846617  0.25000000  0.70577790  1
  V  V7  1  0.75205310  0.99744992  0.05713904  1
  V  V8  1  0.75205310  0.50255008  0.05713904  1
  V  V9  1  0.74794690  0.49744992  0.55713904  1
  V  V10  1  0.74794690  0.00255008  0.55713904  1
  V  V11  1  0.01153383  0.75000000  0.20577790  1
  W  W0  1  0.01853602  0.75000000  0.70693990  1
  W  W1  1  0.48146398  0.25000000  0.20693990  1
  W  W2  1  0.51853602  0.75000000  0.79306010  1
  W  W3  1  0.98146398  0.25000000  0.29306010  1
