# generated using pymatgen
data_4448_Al2Nb6
_symmetry_space_group_name_H-M   'P6_3/mmc'
_cell_length_a   5.84570328
_cell_length_b   5.84570274
_cell_length_c   4.79217233
_cell_angle_alpha   90.00000000
_cell_angle_beta   90.00000000
_cell_angle_gamma   119.99999762
_chemical_formula_structural   Al2Nb6
_chemical_formula_sum   'Al2 Nb6'
_cell_volume   141.81970046
loop_
 _symmetry_equiv_pos_site_id
 _symmetry_equiv_pos_as_xyz
  1  'x, y, z'
loop_
 _atom_type_symbol
  Al
  Nb
loop_
 _atom_site_type_symbol
 _atom_site_label
 _atom_site_symmetry_multiplicity
 _atom_site_fract_x
 _atom_site_fract_y
 _atom_site_fract_z
 _atom_site_occupancy
  Al  Al0  1  0.66666700  0.33333300  0.25000000  1
  Al  Al1  1  0.33333300  0.66666700  0.75000000  1
  Nb  Nb0  1  0.16546961  0.33093922  0.25000000  1
  Nb  Nb1  1  0.16546961  0.83453039  0.25000000  1
  Nb  Nb2  1  0.66906078  0.83453039  0.25000000  1
  Nb  Nb3  1  0.33093922  0.16546961  0.75000000  1
  Nb  Nb4  1  0.83453039  0.16546961  0.75000000  1
  Nb  Nb5  1  0.83453039  0.66906078  0.75000000  1
