# generated using pymatgen
data_4449_K3Pd
_symmetry_space_group_name_H-M   'Immm'
_cell_length_a   9.29024050
_cell_length_b   9.29024050
_cell_length_c   9.29024050
_cell_angle_alpha   155.35472128
_cell_angle_beta   144.74880234
_cell_angle_gamma   43.48651630
_chemical_formula_structural   K3Pd
_chemical_formula_sum   'K3 Pd1'
_cell_volume   192.51541937
loop_
 _symmetry_equiv_pos_site_id
 _symmetry_equiv_pos_as_xyz
  1  'x, y, z'
loop_
 _atom_type_symbol
  K
  Pd
loop_
 _atom_site_type_symbol
 _atom_site_label
 _atom_site_symmetry_multiplicity
 _atom_site_fract_x
 _atom_site_fract_y
 _atom_site_fract_z
 _atom_site_occupancy
  K  K0  1  0.65377169  0.65377169  0.00000000  1
  K  K1  1  0.34622831  0.34622831  0.00000000  1
  K  K2  1  1.00000000  0.50000000  0.50000000  1
  Pd  Pd0  1  0.50000000  0.00000000  0.50000000  1
