# generated using pymatgen
data_444_Al2Pd
_symmetry_space_group_name_H-M   'I4/mmm'
_cell_length_a   4.71848739
_cell_length_b   4.71848739
_cell_length_c   4.71848739
_cell_angle_alpha   138.39369316
_cell_angle_beta   138.39369316
_cell_angle_gamma   60.30057123
_chemical_formula_structural   Al2Pd
_chemical_formula_sum   'Al2 Pd1'
_cell_volume   45.83355577
loop_
 _symmetry_equiv_pos_site_id
 _symmetry_equiv_pos_as_xyz
  1  'x, y, z'
loop_
 _atom_type_symbol
  Al
  Pd
loop_
 _atom_site_type_symbol
 _atom_site_label
 _atom_site_symmetry_multiplicity
 _atom_site_fract_x
 _atom_site_fract_y
 _atom_site_fract_z
 _atom_site_occupancy
  Al  Al0  1  0.99545347  0.99545347  0.00000000  1
  Al  Al1  1  0.67121319  0.67121319  0.00000000  1
  Pd  Pd0  1  0.33333333  0.33333333  0.00000000  1
