# generated using pymatgen
data_4451_Ca5Ge
_symmetry_space_group_name_H-M   'F-43m'
_cell_length_a   6.85870745
_cell_length_b   6.85870745
_cell_length_c   6.85870745
_cell_angle_alpha   60.00000000
_cell_angle_beta   60.00000000
_cell_angle_gamma   60.00000000
_chemical_formula_structural   Ca5Ge
_chemical_formula_sum   'Ca5 Ge1'
_cell_volume   228.14546451
loop_
 _symmetry_equiv_pos_site_id
 _symmetry_equiv_pos_as_xyz
  1  'x, y, z'
loop_
 _atom_type_symbol
  Ca
  Ge
loop_
 _atom_site_type_symbol
 _atom_site_label
 _atom_site_symmetry_multiplicity
 _atom_site_fract_x
 _atom_site_fract_y
 _atom_site_fract_z
 _atom_site_occupancy
  Ca  Ca0  1  0.75000000  0.75000000  0.75000000  1
  Ca  Ca1  1  0.37428045  0.37428045  0.87715865  1
  Ca  Ca2  1  0.37428045  0.37428045  0.37428045  1
  Ca  Ca3  1  0.87715865  0.37428045  0.37428045  1
  Ca  Ca4  1  0.37428045  0.87715865  0.37428045  1
  Ge  Ge0  1  0.00000000  0.00000000  0.00000000  1
