# generated using pymatgen
data_4455_NiGe5
_symmetry_space_group_name_H-M   'P4/mmm'
_cell_length_a   2.99037437
_cell_length_b   2.99037437
_cell_length_c   11.54110102
_cell_angle_alpha   90.00000000
_cell_angle_beta   90.00000000
_cell_angle_gamma   90.00000000
_chemical_formula_structural   NiGe5
_chemical_formula_sum   'Ge5 Ni1'
_cell_volume   103.20443629
loop_
 _symmetry_equiv_pos_site_id
 _symmetry_equiv_pos_as_xyz
  1  'x, y, z'
loop_
 _atom_type_symbol
  Ge
  Ni
loop_
 _atom_site_type_symbol
 _atom_site_label
 _atom_site_symmetry_multiplicity
 _atom_site_fract_x
 _atom_site_fract_y
 _atom_site_fract_z
 _atom_site_occupancy
  Ge  Ge0  1  0.00000000  0.00000000  0.87314507  1
  Ge  Ge1  1  0.00000000  0.00000000  0.12685493  1
  Ge  Ge2  1  0.50000000  0.50000000  0.68302733  1
  Ge  Ge3  1  0.50000000  0.50000000  0.31697267  1
  Ge  Ge4  1  0.00000000  0.00000000  0.50000000  1
  Ni  Ni0  1  0.50000000  0.50000000  0.00000000  1
