# generated using pymatgen
data_4456_Ga4Mn8
_symmetry_space_group_name_H-M   'Pa -3'
_cell_length_a   5.59866327
_cell_length_b   5.59866327
_cell_length_c   5.59866327
_cell_angle_alpha   90.00000000
_cell_angle_beta   90.00000000
_cell_angle_gamma   90.00000000
_chemical_formula_structural   Ga4Mn8
_chemical_formula_sum   'Ga4 Mn8'
_cell_volume   175.49027046
loop_
 _symmetry_equiv_pos_site_id
 _symmetry_equiv_pos_as_xyz
  1  'x, y, z'
loop_
 _atom_type_symbol
  Ga
  Mn
loop_
 _atom_site_type_symbol
 _atom_site_label
 _atom_site_symmetry_multiplicity
 _atom_site_fract_x
 _atom_site_fract_y
 _atom_site_fract_z
 _atom_site_occupancy
  Ga  Ga0  1  0.00000000  0.00000000  0.00000000  1
  Ga  Ga1  1  0.50000000  0.50000000  0.00000000  1
  Ga  Ga2  1  0.50000000  0.00000000  0.50000000  1
  Ga  Ga3  1  0.00000000  0.50000000  0.50000000  1
  Mn  Mn0  1  0.60247790  0.60247790  0.39752210  1
  Mn  Mn1  1  0.39752210  0.39752210  0.60247790  1
  Mn  Mn2  1  0.10247790  0.89752210  0.60247790  1
  Mn  Mn3  1  0.89752210  0.10247790  0.39752210  1
  Mn  Mn4  1  0.39752210  0.10247790  0.10247790  1
  Mn  Mn5  1  0.60247790  0.89752210  0.89752210  1
  Mn  Mn6  1  0.89752210  0.39752210  0.89752210  1
  Mn  Mn7  1  0.10247790  0.60247790  0.10247790  1
