# generated using pymatgen
data_4464_CsYb
_symmetry_space_group_name_H-M   'R -3 m'
_cell_length_a   8.11964110
_cell_length_b   8.11964110
_cell_length_c   8.11964066
_cell_angle_alpha   31.87999177
_cell_angle_beta   31.87999177
_cell_angle_gamma   31.87998977
_chemical_formula_structural   CsYb
_chemical_formula_sum   'Cs1 Yb1'
_cell_volume   132.64293288
loop_
 _symmetry_equiv_pos_site_id
 _symmetry_equiv_pos_as_xyz
  1  'x, y, z'
loop_
 _atom_type_symbol
  Cs
  Yb
loop_
 _atom_site_type_symbol
 _atom_site_label
 _atom_site_symmetry_multiplicity
 _atom_site_fract_x
 _atom_site_fract_y
 _atom_site_fract_z
 _atom_site_occupancy
  Cs  Cs0  1  0.00000000  0.00000000  0.00000000  1
  Yb  Yb0  1  0.49999986  0.49999986  0.50000026  1
