# generated using pymatgen
data_4467_Ba4Fe2
_symmetry_space_group_name_H-M   'C2/m'
_cell_length_a   7.02289430
_cell_length_b   7.02289430
_cell_length_c   9.30740949
_cell_angle_alpha   59.16594786
_cell_angle_beta   59.16594786
_cell_angle_gamma   36.85403826
_chemical_formula_structural   Ba4Fe2
_chemical_formula_sum   'Ba4 Fe2'
_cell_volume   231.68998918
loop_
 _symmetry_equiv_pos_site_id
 _symmetry_equiv_pos_as_xyz
  1  'x, y, z'
loop_
 _atom_type_symbol
  Ba
  Fe
loop_
 _atom_site_type_symbol
 _atom_site_label
 _atom_site_symmetry_multiplicity
 _atom_site_fract_x
 _atom_site_fract_y
 _atom_site_fract_z
 _atom_site_occupancy
  Ba  Ba0  1  0.95925387  0.95925387  0.06243817  1
  Ba  Ba1  1  0.71045898  0.71045898  0.58829826  1
  Ba  Ba2  1  0.34509658  0.34509658  0.80059063  1
  Ba  Ba3  1  0.09630169  0.09630169  0.32645072  1
  Fe  Fe0  1  0.33014389  0.33014389  0.34575868  1
  Fe  Fe1  1  0.72541167  0.72541167  0.04313021  1
