# generated using pymatgen
data_4469_GeAs
_symmetry_space_group_name_H-M   'Immm'
_cell_length_a   2.99036991
_cell_length_b   4.89033952
_cell_length_c   5.47768250
_cell_angle_alpha   90.00000000
_cell_angle_beta   90.00000000
_cell_angle_gamma   90.00000000
_chemical_formula_structural   GeAs
_chemical_formula_sum   'As2 Ge2'
_cell_volume   80.10521340
loop_
 _symmetry_equiv_pos_site_id
 _symmetry_equiv_pos_as_xyz
  1  'x, y, z'
loop_
 _atom_type_symbol
  As
  Ge
loop_
 _atom_site_type_symbol
 _atom_site_label
 _atom_site_symmetry_multiplicity
 _atom_site_fract_x
 _atom_site_fract_y
 _atom_site_fract_z
 _atom_site_occupancy
  As  As0  1  0.00000000  0.00000000  0.12288510  1
  As  As1  1  0.50000000  0.50000000  0.62711490  1
  Ge  Ge0  1  0.00000000  0.00000000  0.62295280  1
  Ge  Ge1  1  0.50000000  0.50000000  0.12704720  1
