# generated using pymatgen
data_4470_Al2In
_symmetry_space_group_name_H-M   'I4/mmm'
_cell_length_a   6.34297695
_cell_length_b   6.34297695
_cell_length_c   6.34297695
_cell_angle_alpha   150.90347564
_cell_angle_beta   150.90347564
_cell_angle_gamma   41.61679470
_chemical_formula_structural   Al2In
_chemical_formula_sum   'Al2 In1'
_cell_volume   60.21008878
loop_
 _symmetry_equiv_pos_site_id
 _symmetry_equiv_pos_as_xyz
  1  'x, y, z'
loop_
 _atom_type_symbol
  Al
  In
loop_
 _atom_site_type_symbol
 _atom_site_label
 _atom_site_symmetry_multiplicity
 _atom_site_fract_x
 _atom_site_fract_y
 _atom_site_fract_z
 _atom_site_occupancy
  Al  Al0  1  0.67989588  0.67989588  0.00000000  1
  Al  Al1  1  0.32010412  0.32010412  0.00000000  1
  In  In0  1  0.00000000  0.00000000  0.00000000  1
