# generated using pymatgen
data_4471_Cu2Pt6
_symmetry_space_group_name_H-M   'I4/mmm'
_cell_length_a   3.89693126
_cell_length_b   8.28497373
_cell_length_c   3.89693126
_cell_angle_alpha   103.60225102
_cell_angle_beta   90.00000007
_cell_angle_gamma   103.60225104
_chemical_formula_structural   Cu2Pt6
_chemical_formula_sum   'Cu2 Pt6'
_cell_volume   118.65346249
loop_
 _symmetry_equiv_pos_site_id
 _symmetry_equiv_pos_as_xyz
  1  'x, y, z'
loop_
 _atom_type_symbol
  Cu
  Pt
loop_
 _atom_site_type_symbol
 _atom_site_label
 _atom_site_symmetry_multiplicity
 _atom_site_fract_x
 _atom_site_fract_y
 _atom_site_fract_z
 _atom_site_occupancy
  Cu  Cu0  1  0.99980696  0.99961392  0.99980696  1
  Cu  Cu1  1  0.25019304  0.50038608  0.25019304  1
  Pt  Pt0  1  0.62500000  0.25000000  0.12500000  1
  Pt  Pt1  1  0.87500000  0.75000000  0.37500000  1
  Pt  Pt2  1  0.50113854  0.00227709  0.50113854  1
  Pt  Pt3  1  0.12500000  0.25000000  0.62500000  1
  Pt  Pt4  1  0.74886146  0.49772291  0.74886146  1
  Pt  Pt5  1  0.37500000  0.75000000  0.87500000  1
