# generated using pymatgen
data_4472_MnSb2
_symmetry_space_group_name_H-M   'Immm'
_cell_length_a   6.54706044
_cell_length_b   6.54706044
_cell_length_c   6.54706044
_cell_angle_alpha   147.28233592
_cell_angle_beta   153.04647681
_cell_angle_gamma   42.88520225
_chemical_formula_structural   MnSb2
_chemical_formula_sum   'Mn1 Sb2'
_cell_volume   68.58228862
loop_
 _symmetry_equiv_pos_site_id
 _symmetry_equiv_pos_as_xyz
  1  'x, y, z'
loop_
 _atom_type_symbol
  Mn
  Sb
loop_
 _atom_site_type_symbol
 _atom_site_label
 _atom_site_symmetry_multiplicity
 _atom_site_fract_x
 _atom_site_fract_y
 _atom_site_fract_z
 _atom_site_occupancy
  Mn  Mn0  1  0.00000000  0.00000000  0.00000000  1
  Sb  Sb0  1  0.36875472  0.36875472  0.00000000  1
  Sb  Sb1  1  0.63124528  0.63124528  0.00000000  1
