# generated using pymatgen
data_4481_Ba4Ir12
_symmetry_space_group_name_H-M   'Pnma'
_cell_length_a   6.43745142
_cell_length_b   7.81911971
_cell_length_c   6.90084570
_cell_angle_alpha   90.00000000
_cell_angle_beta   90.00000000
_cell_angle_gamma   90.00000000
_chemical_formula_structural   Ba4Ir12
_chemical_formula_sum   'Ba4 Ir12'
_cell_volume   347.35547112
loop_
 _symmetry_equiv_pos_site_id
 _symmetry_equiv_pos_as_xyz
  1  'x, y, z'
loop_
 _atom_type_symbol
  Ba
  Ir
loop_
 _atom_site_type_symbol
 _atom_site_label
 _atom_site_symmetry_multiplicity
 _atom_site_fract_x
 _atom_site_fract_y
 _atom_site_fract_z
 _atom_site_occupancy
  Ba  Ba0  1  0.62404716  0.01947415  0.75000000  1
  Ba  Ba1  1  0.12404716  0.48052585  0.25000000  1
  Ba  Ba2  1  0.87595284  0.51947415  0.75000000  1
  Ba  Ba3  1  0.37595284  0.98052585  0.25000000  1
  Ir  Ir0  1  0.15970956  0.85043882  0.75000000  1
  Ir  Ir1  1  0.65970956  0.64956118  0.25000000  1
  Ir  Ir2  1  0.34029044  0.35043882  0.75000000  1
  Ir  Ir3  1  0.84029044  0.14956118  0.25000000  1
  Ir  Ir4  1  0.56927025  0.35816186  0.06601352  1
  Ir  Ir5  1  0.06927025  0.14183814  0.93398648  1
  Ir  Ir6  1  0.93072975  0.85816186  0.43398648  1
  Ir  Ir7  1  0.43072975  0.64183814  0.56601352  1
  Ir  Ir8  1  0.43072975  0.64183814  0.93398648  1
  Ir  Ir9  1  0.93072975  0.85816186  0.06601352  1
  Ir  Ir10  1  0.06927025  0.14183814  0.56601352  1
  Ir  Ir11  1  0.56927025  0.35816186  0.43398648  1
