# generated using pymatgen
data_4485_Na3Rh
_symmetry_space_group_name_H-M   'Immm'
_cell_length_a   6.12187061
_cell_length_b   6.12187061
_cell_length_c   6.12187061
_cell_angle_alpha   150.21558359
_cell_angle_beta   128.19860941
_cell_angle_gamma   60.90298139
_chemical_formula_structural   Na3Rh
_chemical_formula_sum   'Na3 Rh1'
_cell_volume   88.81368693
loop_
 _symmetry_equiv_pos_site_id
 _symmetry_equiv_pos_as_xyz
  1  'x, y, z'
loop_
 _atom_type_symbol
  Na
  Rh
loop_
 _atom_site_type_symbol
 _atom_site_label
 _atom_site_symmetry_multiplicity
 _atom_site_fract_x
 _atom_site_fract_y
 _atom_site_fract_z
 _atom_site_occupancy
  Na  Na0  1  0.72558902  0.72558902  1.00000000  1
  Na  Na1  1  0.27441098  0.27441098  1.00000000  1
  Na  Na2  1  1.00000000  0.50000000  0.50000000  1
  Rh  Rh0  1  0.50000000  1.00000000  0.50000000  1
