# generated using pymatgen
data_4488_Al2V6
_symmetry_space_group_name_H-M   'I4/mmm'
_cell_length_a   8.80223078
_cell_length_b   8.80223078
_cell_length_c   8.80223078
_cell_angle_alpha   156.20842970
_cell_angle_beta   156.20842970
_cell_angle_gamma   33.89735212
_chemical_formula_structural   Al2V6
_chemical_formula_sum   'Al2 V6'
_cell_volume   110.87790094
loop_
 _symmetry_equiv_pos_site_id
 _symmetry_equiv_pos_as_xyz
  1  'x, y, z'
loop_
 _atom_type_symbol
  Al
  V
loop_
 _atom_site_type_symbol
 _atom_site_label
 _atom_site_symmetry_multiplicity
 _atom_site_fract_x
 _atom_site_fract_y
 _atom_site_fract_z
 _atom_site_occupancy
  Al  Al0  1  0.62515504  0.62515504  0.00000000  1
  Al  Al1  1  0.37484496  0.37484496  0.00000000  1
  V  V0  1  0.50000000  0.00000000  0.50000000  1
  V  V1  1  0.00000000  0.50000000  0.50000000  1
  V  V2  1  0.25000000  0.75000000  0.50000000  1
  V  V3  1  0.75000000  0.25000000  0.50000000  1
  V  V4  1  0.87661304  0.87661304  0.00000000  1
  V  V5  1  0.12338696  0.12338696  0.00000000  1
