# generated using pymatgen
data_4490_KTa2
_symmetry_space_group_name_H-M   'I4/mmm'
_cell_length_a   7.22150778
_cell_length_b   7.22150778
_cell_length_c   7.22150778
_cell_angle_alpha   151.96652944
_cell_angle_beta   151.96652944
_cell_angle_gamma   40.06218257
_chemical_formula_structural   KTa2
_chemical_formula_sum   'K1 Ta2'
_cell_volume   83.02538057
loop_
 _symmetry_equiv_pos_site_id
 _symmetry_equiv_pos_as_xyz
  1  'x, y, z'
loop_
 _atom_type_symbol
  K
  Ta
loop_
 _atom_site_type_symbol
 _atom_site_label
 _atom_site_symmetry_multiplicity
 _atom_site_fract_x
 _atom_site_fract_y
 _atom_site_fract_z
 _atom_site_occupancy
  K  K0  1  0.00000000  0.00000000  0.00000000  1
  Ta  Ta0  1  0.28760320  0.28760320  0.00000000  1
  Ta  Ta1  1  0.71239680  0.71239680  0.00000000  1
