# generated using pymatgen
data_4493_Na4Pd2
_symmetry_space_group_name_H-M   'Cmcm'
_cell_length_a   5.36715134
_cell_length_b   5.36715134
_cell_length_c   5.00186363
_cell_angle_alpha   90.00000000
_cell_angle_beta   90.00000000
_cell_angle_gamma   116.61126192
_chemical_formula_structural   Na4Pd2
_chemical_formula_sum   'Na4 Pd2'
_cell_volume   128.82175499
loop_
 _symmetry_equiv_pos_site_id
 _symmetry_equiv_pos_as_xyz
  1  'x, y, z'
loop_
 _atom_type_symbol
  Na
  Pd
loop_
 _atom_site_type_symbol
 _atom_site_label
 _atom_site_symmetry_multiplicity
 _atom_site_fract_x
 _atom_site_fract_y
 _atom_site_fract_z
 _atom_site_occupancy
  Na  Na0  1  0.50620478  0.82337441  0.25000000  1
  Na  Na1  1  0.49379522  0.17662559  0.75000000  1
  Na  Na2  1  0.82337441  0.50620478  0.25000000  1
  Na  Na3  1  0.17662559  0.49379522  0.75000000  1
  Pd  Pd0  1  0.11632447  0.11632447  0.25000000  1
  Pd  Pd1  1  0.88367553  0.88367553  0.75000000  1
