# generated using pymatgen
data_44_NiPt
_symmetry_space_group_name_H-M   'P-6m2'
_cell_length_a   2.71127500
_cell_length_b   2.71127263
_cell_length_c   4.27238400
_cell_angle_alpha   90.00000000
_cell_angle_beta   90.00000000
_cell_angle_gamma   120.00004113
_chemical_formula_structural   NiPt
_chemical_formula_sum   'Ni1 Pt1'
_cell_volume   27.19865893
loop_
 _symmetry_equiv_pos_site_id
 _symmetry_equiv_pos_as_xyz
  1  'x, y, z'
loop_
 _atom_type_symbol
  Ni
  Pt
loop_
 _atom_site_type_symbol
 _atom_site_label
 _atom_site_symmetry_multiplicity
 _atom_site_fract_x
 _atom_site_fract_y
 _atom_site_fract_z
 _atom_site_occupancy
  Ni  Ni0  1  0.66666840  0.33333471  0.75000040  1
  Pt  Pt0  1  0.33333270  0.66666515  0.25000091  1
