# generated using pymatgen
data_4500_IrMo2
_symmetry_space_group_name_H-M   'Immm'
_cell_length_a   4.89085057
_cell_length_b   4.89085057
_cell_length_c   4.89085057
_cell_angle_alpha   147.41516532
_cell_angle_beta   132.22107034
_cell_angle_gamma   59.03008341
_chemical_formula_structural   IrMo2
_chemical_formula_sum   'Ir1 Mo2'
_cell_volume   46.26646325
loop_
 _symmetry_equiv_pos_site_id
 _symmetry_equiv_pos_as_xyz
  1  'x, y, z'
loop_
 _atom_type_symbol
  Ir
  Mo
loop_
 _atom_site_type_symbol
 _atom_site_label
 _atom_site_symmetry_multiplicity
 _atom_site_fract_x
 _atom_site_fract_y
 _atom_site_fract_z
 _atom_site_occupancy
  Ir  Ir0  1  0.00000000  0.00000000  0.00000000  1
  Mo  Mo0  1  0.33666618  0.33666618  0.00000000  1
  Mo  Mo1  1  0.66333382  0.66333382  0.00000000  1
