# generated using pymatgen
data_4505_CuIr4
_symmetry_space_group_name_H-M   'I4/mmm'
_cell_length_a   3.62038940
_cell_length_b   6.71541845
_cell_length_c   3.62038940
_cell_angle_alpha   74.36203361
_cell_angle_beta   90.00000000
_cell_angle_gamma   105.63796639
_chemical_formula_structural   CuIr4
_chemical_formula_sum   'Cu1 Ir4'
_cell_volume   81.37381030
loop_
 _symmetry_equiv_pos_site_id
 _symmetry_equiv_pos_as_xyz
  1  'x, y, z'
loop_
 _atom_type_symbol
  Cu
  Ir
loop_
 _atom_site_type_symbol
 _atom_site_label
 _atom_site_symmetry_multiplicity
 _atom_site_fract_x
 _atom_site_fract_y
 _atom_site_fract_z
 _atom_site_occupancy
  Cu  Cu0  1  0.00000000  0.00000000  0.00000000  1
  Ir  Ir0  1  0.25000000  0.50000000  0.25000000  1
  Ir  Ir1  1  0.40180641  0.80361283  0.59819359  1
  Ir  Ir2  1  0.59819359  0.19638717  0.40180641  1
  Ir  Ir3  1  0.75000000  0.50000000  0.75000000  1
