# generated using pymatgen
data_4509_AuGa
_symmetry_space_group_name_H-M   'P-6m2'
_cell_length_a   2.94071700
_cell_length_b   2.94066475
_cell_length_c   4.71646100
_cell_angle_alpha   90.00000000
_cell_angle_beta   90.00000000
_cell_angle_gamma   120.00059907
_chemical_formula_structural   AuGa
_chemical_formula_sum   'Au1 Ga1'
_cell_volume   35.32181445
loop_
 _symmetry_equiv_pos_site_id
 _symmetry_equiv_pos_as_xyz
  1  'x, y, z'
loop_
 _atom_type_symbol
  Au
  Ga
loop_
 _atom_site_type_symbol
 _atom_site_label
 _atom_site_symmetry_multiplicity
 _atom_site_fract_x
 _atom_site_fract_y
 _atom_site_fract_z
 _atom_site_occupancy
  Au  Au0  1  0.66666681  0.33333262  0.75000088  1
  Ga  Ga0  1  0.33333274  0.66666525  0.25000100  1
