# generated using pymatgen
data_4513_In2Mo2
_symmetry_space_group_name_H-M   'Pmma'
_cell_length_a   4.65912805
_cell_length_b   3.05779890
_cell_length_c   6.06611090
_cell_angle_alpha   59.02036337
_cell_angle_beta   90.00000000
_cell_angle_gamma   90.00000000
_chemical_formula_structural   In2Mo2
_chemical_formula_sum   'In2 Mo2'
_cell_volume   74.09385892
loop_
 _symmetry_equiv_pos_site_id
 _symmetry_equiv_pos_as_xyz
  1  'x, y, z'
loop_
 _atom_type_symbol
  In
  Mo
loop_
 _atom_site_type_symbol
 _atom_site_label
 _atom_site_symmetry_multiplicity
 _atom_site_fract_x
 _atom_site_fract_y
 _atom_site_fract_z
 _atom_site_occupancy
  In  In0  1  0.75000000  0.15842277  0.83658201  1
  In  In1  1  0.25000000  0.84157723  0.16341799  1
  Mo  Mo0  1  0.75000000  0.12631266  0.36650813  1
  Mo  Mo1  1  0.25000000  0.87368734  0.63349187  1
