# generated using pymatgen
data_4516_Ni2Ge4
_symmetry_space_group_name_H-M   'Cmcm'
_cell_length_a   6.33541302
_cell_length_b   6.33541302
_cell_length_c   4.76753744
_cell_angle_alpha   90.00000000
_cell_angle_beta   90.00000000
_cell_angle_gamma   151.18999200
_chemical_formula_structural   Ni2Ge4
_chemical_formula_sum   'Ge4 Ni2'
_cell_volume   92.21614687
loop_
 _symmetry_equiv_pos_site_id
 _symmetry_equiv_pos_as_xyz
  1  'x, y, z'
loop_
 _atom_type_symbol
  Ge
  Ni
loop_
 _atom_site_type_symbol
 _atom_site_label
 _atom_site_symmetry_multiplicity
 _atom_site_fract_x
 _atom_site_fract_y
 _atom_site_fract_z
 _atom_site_occupancy
  Ge  Ge0  1  0.99168491  0.00831509  0.00000000  1
  Ge  Ge1  1  0.67312320  0.32687680  0.00000000  1
  Ge  Ge2  1  0.45275954  0.54724046  0.50000000  1
  Ge  Ge3  1  0.77132125  0.22867875  0.50000000  1
  Ni  Ni0  1  0.33811662  0.66188338  0.00000000  1
  Ni  Ni1  1  0.10632782  0.89367218  0.50000000  1
