# generated using pymatgen
data_4517_Rh3Sb
_symmetry_space_group_name_H-M   'P4/mmm'
_cell_length_a   3.29948569
_cell_length_b   3.29948569
_cell_length_c   5.81898198
_cell_angle_alpha   90.00000000
_cell_angle_beta   90.00000000
_cell_angle_gamma   90.00000000
_chemical_formula_structural   Rh3Sb
_chemical_formula_sum   'Rh3 Sb1'
_cell_volume   63.34896308
loop_
 _symmetry_equiv_pos_site_id
 _symmetry_equiv_pos_as_xyz
  1  'x, y, z'
loop_
 _atom_type_symbol
  Rh
  Sb
loop_
 _atom_site_type_symbol
 _atom_site_label
 _atom_site_symmetry_multiplicity
 _atom_site_fract_x
 _atom_site_fract_y
 _atom_site_fract_z
 _atom_site_occupancy
  Rh  Rh0  1  0.00000000  0.00000000  0.99094494  1
  Rh  Rh1  1  0.50000000  0.50000000  0.25000000  1
  Rh  Rh2  1  0.00000000  0.00000000  0.50905506  1
  Sb  Sb0  1  0.50000000  0.50000000  0.75000000  1
