# generated using pymatgen
data_4521_Ir8Mo22
_symmetry_space_group_name_H-M   'P4_2/mnm'
_cell_length_a   9.60905681
_cell_length_b   9.60905681
_cell_length_c   5.11035221
_cell_angle_alpha   90.00000000
_cell_angle_beta   90.00000000
_cell_angle_gamma   90.00000000
_chemical_formula_structural   Ir8Mo22
_chemical_formula_sum   'Ir8 Mo22'
_cell_volume   471.85912184
loop_
 _symmetry_equiv_pos_site_id
 _symmetry_equiv_pos_as_xyz
  1  'x, y, z'
loop_
 _atom_type_symbol
  Ir
  Mo
loop_
 _atom_site_type_symbol
 _atom_site_label
 _atom_site_symmetry_multiplicity
 _atom_site_fract_x
 _atom_site_fract_y
 _atom_site_fract_z
 _atom_site_occupancy
  Ir  Ir0  1  0.13914140  0.53489444  0.00000000  1
  Ir  Ir1  1  0.86085860  0.46510556  0.00000000  1
  Ir  Ir2  1  0.96510556  0.63914140  0.50000000  1
  Ir  Ir3  1  0.03489444  0.36085860  0.50000000  1
  Ir  Ir4  1  0.36085860  0.03489444  0.50000000  1
  Ir  Ir5  1  0.63914140  0.96510556  0.50000000  1
  Ir  Ir6  1  0.53489444  0.13914140  0.00000000  1
  Ir  Ir7  1  0.46510556  0.86085860  0.00000000  1
  Mo  Mo0  1  0.00000000  0.00000000  0.00000000  1
  Mo  Mo1  1  0.50000000  0.50000000  0.50000000  1
  Mo  Mo2  1  0.40588164  0.59411836  0.00000000  1
  Mo  Mo3  1  0.59411836  0.40588164  0.00000000  1
  Mo  Mo4  1  0.90588164  0.90588164  0.50000000  1
  Mo  Mo5  1  0.09411836  0.09411836  0.50000000  1
  Mo  Mo6  1  0.05587580  0.26322384  0.00000000  1
  Mo  Mo7  1  0.94412420  0.73677616  0.00000000  1
  Mo  Mo8  1  0.23677616  0.55587580  0.50000000  1
  Mo  Mo9  1  0.76322384  0.44412420  0.50000000  1
  Mo  Mo10  1  0.44412420  0.76322384  0.50000000  1
  Mo  Mo11  1  0.55587580  0.23677616  0.50000000  1
  Mo  Mo12  1  0.26322384  0.05587580  0.00000000  1
  Mo  Mo13  1  0.73677616  0.94412420  0.00000000  1
  Mo  Mo14  1  0.30812758  0.30812758  0.24831956  1
  Mo  Mo15  1  0.69187242  0.69187242  0.24831956  1
  Mo  Mo16  1  0.19187242  0.80812758  0.74831956  1
  Mo  Mo17  1  0.80812758  0.19187242  0.74831956  1
  Mo  Mo18  1  0.19187242  0.80812758  0.25168044  1
  Mo  Mo19  1  0.80812758  0.19187242  0.25168044  1
  Mo  Mo20  1  0.30812758  0.30812758  0.75168044  1
  Mo  Mo21  1  0.69187242  0.69187242  0.75168044  1
