# generated using pymatgen
data_4526_Fe8Ga4
_symmetry_space_group_name_H-M   'Pnma'
_cell_length_a   3.80948741
_cell_length_b   5.15800356
_cell_length_c   7.61010292
_cell_angle_alpha   90.00000000
_cell_angle_beta   90.00000000
_cell_angle_gamma   90.00000000
_chemical_formula_structural   Fe8Ga4
_chemical_formula_sum   'Fe8 Ga4'
_cell_volume   149.53357294
loop_
 _symmetry_equiv_pos_site_id
 _symmetry_equiv_pos_as_xyz
  1  'x, y, z'
loop_
 _atom_type_symbol
  Fe
  Ga
loop_
 _atom_site_type_symbol
 _atom_site_label
 _atom_site_symmetry_multiplicity
 _atom_site_fract_x
 _atom_site_fract_y
 _atom_site_fract_z
 _atom_site_occupancy
  Fe  Fe0  1  0.25000000  0.08008191  0.74731644  1
  Fe  Fe1  1  0.75000000  0.41991809  0.24731644  1
  Fe  Fe2  1  0.25000000  0.58008191  0.75268356  1
  Fe  Fe3  1  0.75000000  0.91991809  0.25268356  1
  Fe  Fe4  1  0.25000000  0.15001486  0.41441860  1
  Fe  Fe5  1  0.75000000  0.34998514  0.91441860  1
  Fe  Fe6  1  0.25000000  0.65001486  0.08558140  1
  Fe  Fe7  1  0.75000000  0.84998514  0.58558140  1
  Ga  Ga0  1  0.25000000  0.66087773  0.41248964  1
  Ga  Ga1  1  0.75000000  0.83912227  0.91248964  1
  Ga  Ga2  1  0.25000000  0.16087773  0.08751036  1
  Ga  Ga3  1  0.75000000  0.33912227  0.58751036  1
