# generated using pymatgen
data_4534_K5Sr24
_symmetry_space_group_name_H-M   'I-43m'
_cell_length_a   13.06932516
_cell_length_b   13.06932516
_cell_length_c   13.06932516
_cell_angle_alpha   109.47122063
_cell_angle_beta   109.47122063
_cell_angle_gamma   109.47122063
_chemical_formula_structural   K5Sr24
_chemical_formula_sum   'K5 Sr24'
_cell_volume   1718.45276389
loop_
 _symmetry_equiv_pos_site_id
 _symmetry_equiv_pos_as_xyz
  1  'x, y, z'
loop_
 _atom_type_symbol
  K
  Sr
loop_
 _atom_site_type_symbol
 _atom_site_label
 _atom_site_symmetry_multiplicity
 _atom_site_fract_x
 _atom_site_fract_y
 _atom_site_fract_z
 _atom_site_occupancy
  K  K0  1  0.00000000  0.64204165  0.00000000  1
  K  K1  1  0.64204165  0.00000000  0.00000000  1
  K  K2  1  0.00000000  0.00000000  0.64204165  1
  K  K3  1  0.35795835  0.35795835  0.35795835  1
  K  K4  1  0.00000000  0.00000000  0.00000000  1
  Sr  Sr0  1  0.19157859  0.38258045  0.00000000  1
  Sr  Sr1  1  0.38258045  0.19157859  0.00000000  1
  Sr  Sr2  1  0.80842141  0.80842141  0.19100186  1
  Sr  Sr3  1  0.61741955  0.61741955  0.80899814  1
  Sr  Sr4  1  0.80842141  0.19100186  0.80842141  1
  Sr  Sr5  1  0.61741955  0.80899814  0.61741955  1
  Sr  Sr6  1  0.38258045  0.00000000  0.19157859  1
  Sr  Sr7  1  0.19157859  0.00000000  0.38258045  1
  Sr  Sr8  1  0.00000000  0.38258045  0.19157859  1
  Sr  Sr9  1  0.00000000  0.19157859  0.38258045  1
  Sr  Sr10  1  0.80899814  0.61741955  0.61741955  1
  Sr  Sr11  1  0.19100186  0.80842141  0.80842141  1
  Sr  Sr12  1  0.68285644  0.41265220  0.00000000  1
  Sr  Sr13  1  0.41265220  0.68285644  0.00000000  1
  Sr  Sr14  1  0.31714356  0.31714356  0.72979576  1
  Sr  Sr15  1  0.58734780  0.58734780  0.27020424  1
  Sr  Sr16  1  0.31714356  0.72979576  0.31714356  1
  Sr  Sr17  1  0.58734780  0.27020424  0.58734780  1
  Sr  Sr18  1  0.41265220  0.00000000  0.68285644  1
  Sr  Sr19  1  0.68285644  0.00000000  0.41265220  1
  Sr  Sr20  1  1.00000000  0.41265220  0.68285644  1
  Sr  Sr21  1  1.00000000  0.68285644  0.41265220  1
  Sr  Sr22  1  0.27020424  0.58734780  0.58734780  1
  Sr  Sr23  1  0.72979576  0.31714356  0.31714356  1
