# generated using pymatgen
data_4537_Al2Fe4
_symmetry_space_group_name_H-M   'Cmcm'
_cell_length_a   6.14922294
_cell_length_b   6.14922294
_cell_length_c   4.02321134
_cell_angle_alpha   90.00000000
_cell_angle_beta   90.00000000
_cell_angle_gamma   151.15272217
_chemical_formula_structural   Al2Fe4
_chemical_formula_sum   'Al2 Fe4'
_cell_volume   73.39890426
loop_
 _symmetry_equiv_pos_site_id
 _symmetry_equiv_pos_as_xyz
  1  'x, y, z'
loop_
 _atom_type_symbol
  Al
  Fe
loop_
 _atom_site_type_symbol
 _atom_site_label
 _atom_site_symmetry_multiplicity
 _atom_site_fract_x
 _atom_site_fract_y
 _atom_site_fract_z
 _atom_site_occupancy
  Al  Al0  1  0.09168366  0.90831634  0.25000000  1
  Al  Al1  1  0.90831634  0.09168366  0.75000000  1
  Fe  Fe0  1  0.42218738  0.57781262  0.25000000  1
  Fe  Fe1  1  0.57781262  0.42218738  0.75000000  1
  Fe  Fe2  1  0.76105387  0.23894613  0.25000000  1
  Fe  Fe3  1  0.23894613  0.76105387  0.75000000  1
