# generated using pymatgen
data_4540_Pd4Sb2
_symmetry_space_group_name_H-M   'I4/mcm'
_cell_length_a   5.39051617
_cell_length_b   5.39051617
_cell_length_c   5.39051617
_cell_angle_alpha   117.22154896
_cell_angle_beta   117.22154896
_cell_angle_gamma   94.88379893
_chemical_formula_structural   Pd4Sb2
_chemical_formula_sum   'Pd4 Sb2'
_cell_volume   114.95778039
loop_
 _symmetry_equiv_pos_site_id
 _symmetry_equiv_pos_as_xyz
  1  'x, y, z'
loop_
 _atom_type_symbol
  Pd
  Sb
loop_
 _atom_site_type_symbol
 _atom_site_label
 _atom_site_symmetry_multiplicity
 _atom_site_fract_x
 _atom_site_fract_y
 _atom_site_fract_z
 _atom_site_occupancy
  Pd  Pd0  1  0.32239724  0.17760276  0.50000000  1
  Pd  Pd1  1  0.67760276  0.82239724  0.50000000  1
  Pd  Pd2  1  0.17760276  0.67760276  0.85520552  1
  Pd  Pd3  1  0.82239724  0.32239724  0.14479448  1
  Sb  Sb0  1  0.75000000  0.75000000  0.00000000  1
  Sb  Sb1  1  0.25000000  0.25000000  0.00000000  1
