# generated using pymatgen
data_4541_Ag2Sr
_symmetry_space_group_name_H-M   'Fm -3 m'
_cell_length_a   5.21541528
_cell_length_b   5.21541528
_cell_length_c   5.21541528
_cell_angle_alpha   60.00000000
_cell_angle_beta   60.00000000
_cell_angle_gamma   60.00000000
_chemical_formula_structural   Ag2Sr
_chemical_formula_sum   'Ag2 Sr1'
_cell_volume   100.31172226
loop_
 _symmetry_equiv_pos_site_id
 _symmetry_equiv_pos_as_xyz
  1  'x, y, z'
loop_
 _atom_type_symbol
  Ag
  Sr
loop_
 _atom_site_type_symbol
 _atom_site_label
 _atom_site_symmetry_multiplicity
 _atom_site_fract_x
 _atom_site_fract_y
 _atom_site_fract_z
 _atom_site_occupancy
  Ag  Ag0  1  0.75000000  0.75000000  0.75000000  1
  Ag  Ag1  1  0.25000000  0.25000000  0.25000000  1
  Sr  Sr0  1  0.00000000  0.00000000  0.00000000  1
