# generated using pymatgen
data_4548_SbP3
_symmetry_space_group_name_H-M   'Cmmm'
_cell_length_a   3.24858554
_cell_length_b   3.24858554
_cell_length_c   7.94377767
_cell_angle_alpha   90.00000000
_cell_angle_beta   90.00000000
_cell_angle_gamma   116.95573393
_chemical_formula_structural   SbP3
_chemical_formula_sum   'P3 Sb1'
_cell_volume   74.72524983
loop_
 _symmetry_equiv_pos_site_id
 _symmetry_equiv_pos_as_xyz
  1  'x, y, z'
loop_
 _atom_type_symbol
  P
  Sb
loop_
 _atom_site_type_symbol
 _atom_site_label
 _atom_site_symmetry_multiplicity
 _atom_site_fract_x
 _atom_site_fract_y
 _atom_site_fract_z
 _atom_site_occupancy
  P  P0  1  0.00000000  0.00000000  0.95057577  1
  P  P1  1  0.50000000  0.50000000  0.75000000  1
  P  P2  1  0.00000000  0.00000000  0.54942423  1
  Sb  Sb0  1  0.50000000  0.50000000  0.25000000  1
