# generated using pymatgen
data_4552_Sn2Ta6
_symmetry_space_group_name_H-M   'Pm -3 n'
_cell_length_a   5.31591000
_cell_length_b   5.31591000
_cell_length_c   5.31591000
_cell_angle_alpha   90.00000000
_cell_angle_beta   90.00000000
_cell_angle_gamma   90.00000000
_chemical_formula_structural   Sn2Ta6
_chemical_formula_sum   'Sn2 Ta6'
_cell_volume   150.22176446
loop_
 _symmetry_equiv_pos_site_id
 _symmetry_equiv_pos_as_xyz
  1  'x, y, z'
loop_
 _atom_type_symbol
  Sn
  Ta
loop_
 _atom_site_type_symbol
 _atom_site_label
 _atom_site_symmetry_multiplicity
 _atom_site_fract_x
 _atom_site_fract_y
 _atom_site_fract_z
 _atom_site_occupancy
  Sn  Sn0  1  0.00000000  0.00000000  0.00000000  1
  Sn  Sn1  1  0.49999908  0.49999908  0.49999908  1
  Ta  Ta0  1  0.49999908  0.25000048  0.00000000  1
  Ta  Ta1  1  0.49999908  0.74999956  0.00000000  1
  Ta  Ta2  1  0.00000000  0.49999908  0.25000048  1
  Ta  Ta3  1  0.25000048  0.00000000  0.49999908  1
  Ta  Ta4  1  0.74999956  0.00000000  0.49999908  1
  Ta  Ta5  1  0.00000000  0.49999908  0.74999956  1
