# generated using pymatgen
data_4553_InMo2
_symmetry_space_group_name_H-M   'I4/mmm'
_cell_length_a   5.36339435
_cell_length_b   5.36339435
_cell_length_c   5.36339435
_cell_angle_alpha   143.96540511
_cell_angle_beta   143.96540511
_cell_angle_gamma   51.87902693
_chemical_formula_structural   InMo2
_chemical_formula_sum   'In1 Mo2'
_cell_volume   53.09260593
loop_
 _symmetry_equiv_pos_site_id
 _symmetry_equiv_pos_as_xyz
  1  'x, y, z'
loop_
 _atom_type_symbol
  In
  Mo
loop_
 _atom_site_type_symbol
 _atom_site_label
 _atom_site_symmetry_multiplicity
 _atom_site_fract_x
 _atom_site_fract_y
 _atom_site_fract_z
 _atom_site_occupancy
  In  In0  1  0.00000000  0.00000000  0.00000000  1
  Mo  Mo0  1  0.68500216  0.68500216  0.00000000  1
  Mo  Mo1  1  0.31499784  0.31499784  0.00000000  1
