# generated using pymatgen
data_4558_TaSb4
_symmetry_space_group_name_H-M   'I4/mmm'
_cell_length_a   7.05675784
_cell_length_b   7.05675784
_cell_length_c   7.05675784
_cell_angle_alpha   138.30616675
_cell_angle_beta   138.30616675
_cell_angle_gamma   60.43441220
_chemical_formula_structural   TaSb4
_chemical_formula_sum   'Sb4 Ta1'
_cell_volume   153.82962637
loop_
 _symmetry_equiv_pos_site_id
 _symmetry_equiv_pos_as_xyz
  1  'x, y, z'
loop_
 _atom_type_symbol
  Sb
  Ta
loop_
 _atom_site_type_symbol
 _atom_site_label
 _atom_site_symmetry_multiplicity
 _atom_site_fract_x
 _atom_site_fract_y
 _atom_site_fract_z
 _atom_site_occupancy
  Sb  Sb0  1  0.25000000  0.75000000  0.50000000  1
  Sb  Sb1  1  0.75000000  0.25000000  0.50000000  1
  Sb  Sb2  1  0.61474087  0.61474087  0.00000000  1
  Sb  Sb3  1  0.38525913  0.38525913  0.00000000  1
  Ta  Ta0  1  0.00000000  0.00000000  0.00000000  1
