# generated using pymatgen
data_4559_Al3Ba
_symmetry_space_group_name_H-M   'P4/mmm'
_cell_length_a   3.62131041
_cell_length_b   3.62131041
_cell_length_c   7.61771181
_cell_angle_alpha   90.00000000
_cell_angle_beta   90.00000000
_cell_angle_gamma   90.00000000
_chemical_formula_structural   Al3Ba
_chemical_formula_sum   'Al3 Ba1'
_cell_volume   99.89782776
loop_
 _symmetry_equiv_pos_site_id
 _symmetry_equiv_pos_as_xyz
  1  'x, y, z'
loop_
 _atom_type_symbol
  Al
  Ba
loop_
 _atom_site_type_symbol
 _atom_site_label
 _atom_site_symmetry_multiplicity
 _atom_site_fract_x
 _atom_site_fract_y
 _atom_site_fract_z
 _atom_site_occupancy
  Al  Al0  1  0.50000000  0.50000000  0.67593114  1
  Al  Al1  1  0.00000000  0.00000000  0.50000000  1
  Al  Al2  1  0.50000000  0.50000000  0.32406886  1
  Ba  Ba0  1  0.00000000  0.00000000  0.00000000  1
