# generated using pymatgen
data_4569_Pb4P2
_symmetry_space_group_name_H-M   'Cmcm'
_cell_length_a   7.30471757
_cell_length_b   7.30471757
_cell_length_c   6.11682671
_cell_angle_alpha   90.00000000
_cell_angle_beta   90.00000000
_cell_angle_gamma   148.16199152
_chemical_formula_structural   Pb4P2
_chemical_formula_sum   'P2 Pb4'
_cell_volume   172.17557166
loop_
 _symmetry_equiv_pos_site_id
 _symmetry_equiv_pos_as_xyz
  1  'x, y, z'
loop_
 _atom_type_symbol
  P
  Pb
loop_
 _atom_site_type_symbol
 _atom_site_label
 _atom_site_symmetry_multiplicity
 _atom_site_fract_x
 _atom_site_fract_y
 _atom_site_fract_z
 _atom_site_occupancy
  P  P0  1  0.03823936  0.96176064  0.00000000  1
  P  P1  1  0.40620508  0.59379492  0.50000000  1
  Pb  Pb0  1  0.39483278  0.60516722  0.00000000  1
  Pb  Pb1  1  0.67649384  0.32350616  0.00000000  1
  Pb  Pb2  1  0.76795061  0.23204939  0.50000000  1
  Pb  Pb3  1  0.04961166  0.95038834  0.50000000  1
