# generated using pymatgen
data_4570_Ba2Ge6
_symmetry_space_group_name_H-M   'I4/mmm'
_cell_length_a   9.89497573
_cell_length_b   9.89497573
_cell_length_c   9.89497573
_cell_angle_alpha   152.97769851
_cell_angle_beta   152.97769851
_cell_angle_gamma   38.58723059
_chemical_formula_structural   Ba2Ge6
_chemical_formula_sum   'Ba2 Ge6'
_cell_volume   199.65301093
loop_
 _symmetry_equiv_pos_site_id
 _symmetry_equiv_pos_as_xyz
  1  'x, y, z'
loop_
 _atom_type_symbol
  Ba
  Ge
loop_
 _atom_site_type_symbol
 _atom_site_label
 _atom_site_symmetry_multiplicity
 _atom_site_fract_x
 _atom_site_fract_y
 _atom_site_fract_z
 _atom_site_occupancy
  Ba  Ba0  1  0.37600428  0.37600428  0.00000000  1
  Ba  Ba1  1  0.62399572  0.62399572  0.00000000  1
  Ge  Ge0  1  0.00000000  0.50000000  0.50000000  1
  Ge  Ge1  1  0.50000000  0.00000000  0.50000000  1
  Ge  Ge2  1  0.25000000  0.75000000  0.50000000  1
  Ge  Ge3  1  0.75000000  0.25000000  0.50000000  1
  Ge  Ge4  1  0.12518103  0.12518103  0.00000000  1
  Ge  Ge5  1  0.87481897  0.87481897  0.00000000  1
