# generated using pymatgen
data_4571_Fe4Pb4
_symmetry_space_group_name_H-M   'Pnma'
_cell_length_a   4.54421594
_cell_length_b   5.00196429
_cell_length_c   6.30228744
_cell_angle_alpha   90.00000000
_cell_angle_beta   90.00000000
_cell_angle_gamma   90.00000000
_chemical_formula_structural   Fe4Pb4
_chemical_formula_sum   'Fe4 Pb4'
_cell_volume   143.25103043
loop_
 _symmetry_equiv_pos_site_id
 _symmetry_equiv_pos_as_xyz
  1  'x, y, z'
loop_
 _atom_type_symbol
  Fe
  Pb
loop_
 _atom_site_type_symbol
 _atom_site_label
 _atom_site_symmetry_multiplicity
 _atom_site_fract_x
 _atom_site_fract_y
 _atom_site_fract_z
 _atom_site_occupancy
  Fe  Fe0  1  0.75000000  0.73911222  0.23577874  1
  Fe  Fe1  1  0.25000000  0.23911222  0.26422126  1
  Fe  Fe2  1  0.75000000  0.76088778  0.73577874  1
  Fe  Fe3  1  0.25000000  0.26088778  0.76422126  1
  Pb  Pb0  1  0.75000000  0.23793171  0.03565990  1
  Pb  Pb1  1  0.25000000  0.73793171  0.46434010  1
  Pb  Pb2  1  0.75000000  0.26206829  0.53565990  1
  Pb  Pb3  1  0.25000000  0.76206829  0.96434010  1
