# generated using pymatgen
data_4572_TaP2
_symmetry_space_group_name_H-M   'I4/mmm'
_cell_length_a   4.64850475
_cell_length_b   4.64850475
_cell_length_c   4.64850475
_cell_angle_alpha   138.73403766
_cell_angle_beta   138.73403766
_cell_angle_gamma   59.78062524
_chemical_formula_structural   TaP2
_chemical_formula_sum   'P2 Ta1'
_cell_volume   43.25466396
loop_
 _symmetry_equiv_pos_site_id
 _symmetry_equiv_pos_as_xyz
  1  'x, y, z'
loop_
 _atom_type_symbol
  P
  Ta
loop_
 _atom_site_type_symbol
 _atom_site_label
 _atom_site_symmetry_multiplicity
 _atom_site_fract_x
 _atom_site_fract_y
 _atom_site_fract_z
 _atom_site_occupancy
  P  P0  1  0.00008726  0.00008726  0.00000000  1
  P  P1  1  0.66657940  0.66657940  0.00000000  1
  Ta  Ta0  1  0.33333333  0.33333333  0.00000000  1
