# generated using pymatgen
data_4573_Mn6Pd2
_symmetry_space_group_name_H-M   'Cmcm'
_cell_length_a   5.18774413
_cell_length_b   5.18774413
_cell_length_c   4.08093588
_cell_angle_alpha   90.00000000
_cell_angle_beta   90.00000000
_cell_angle_gamma   120.16709171
_chemical_formula_structural   Mn6Pd2
_chemical_formula_sum   'Mn6 Pd2'
_cell_volume   94.95411693
loop_
 _symmetry_equiv_pos_site_id
 _symmetry_equiv_pos_as_xyz
  1  'x, y, z'
loop_
 _atom_type_symbol
  Mn
  Pd
loop_
 _atom_site_type_symbol
 _atom_site_label
 _atom_site_symmetry_multiplicity
 _atom_site_fract_x
 _atom_site_fract_y
 _atom_site_fract_z
 _atom_site_occupancy
  Mn  Mn0  1  0.90639871  0.09360129  0.75000000  1
  Mn  Mn1  1  0.09360129  0.90639871  0.25000000  1
  Mn  Mn2  1  0.40252466  0.06535273  0.75000000  1
  Mn  Mn3  1  0.59747534  0.93464727  0.25000000  1
  Mn  Mn4  1  0.93464727  0.59747534  0.75000000  1
  Mn  Mn5  1  0.06535273  0.40252466  0.25000000  1
  Pd  Pd0  1  0.58689819  0.41310181  0.25000000  1
  Pd  Pd1  1  0.41310181  0.58689819  0.75000000  1
