# generated using pymatgen
data_4575_Cu8P4
_symmetry_space_group_name_H-M   'I4_1/amd'
_cell_length_a   11.87512054
_cell_length_b   11.87512054
_cell_length_c   11.87512054
_cell_angle_alpha   162.49284586
_cell_angle_beta   162.49284586
_cell_angle_gamma   24.85712953
_chemical_formula_structural   Cu8P4
_chemical_formula_sum   'Cu8 P4'
_cell_volume   151.50239142
loop_
 _symmetry_equiv_pos_site_id
 _symmetry_equiv_pos_as_xyz
  1  'x, y, z'
loop_
 _atom_type_symbol
  Cu
  P
loop_
 _atom_site_type_symbol
 _atom_site_label
 _atom_site_symmetry_multiplicity
 _atom_site_fract_x
 _atom_site_fract_y
 _atom_site_fract_z
 _atom_site_occupancy
  Cu  Cu0  1  0.75352691  0.75352691  0.00000000  1
  Cu  Cu1  1  0.24647309  0.24647309  0.00000000  1
  Cu  Cu2  1  0.00352691  0.50352691  0.50000000  1
  Cu  Cu3  1  0.49647309  0.99647309  0.50000000  1
  Cu  Cu4  1  0.58487477  0.58487478  0.00000000  1
  Cu  Cu5  1  0.41512523  0.41512522  0.00000000  1
  Cu  Cu6  1  0.83487477  0.33487478  0.50000000  1
  Cu  Cu7  1  0.66512523  0.16512522  0.50000000  1
  P  P0  1  0.92678045  0.92678046  0.00000000  1
  P  P1  1  0.07321955  0.07321954  0.00000000  1
  P  P2  1  0.17678045  0.67678046  0.50000000  1
  P  P3  1  0.32321955  0.82321954  0.50000000  1
