# generated using pymatgen
data_4582_Pt4V12
_symmetry_space_group_name_H-M   'Pnma'
_cell_length_a   4.86291044
_cell_length_b   8.86387868
_cell_length_c   5.23675900
_cell_angle_alpha   90.00000000
_cell_angle_beta   90.00000000
_cell_angle_gamma   90.00000000
_chemical_formula_structural   Pt4V12
_chemical_formula_sum   'Pt4 V12'
_cell_volume   225.72655955
loop_
 _symmetry_equiv_pos_site_id
 _symmetry_equiv_pos_as_xyz
  1  'x, y, z'
loop_
 _atom_type_symbol
  Pt
  V
loop_
 _atom_site_type_symbol
 _atom_site_label
 _atom_site_symmetry_multiplicity
 _atom_site_fract_x
 _atom_site_fract_y
 _atom_site_fract_z
 _atom_site_occupancy
  Pt  Pt0  1  0.05735620  0.75000000  0.62080192  1
  Pt  Pt1  1  0.44264380  0.25000000  0.12080192  1
  Pt  Pt2  1  0.55735620  0.75000000  0.87919808  1
  Pt  Pt3  1  0.94264380  0.25000000  0.37919808  1
  V  V0  1  0.97516243  0.25000000  0.87588011  1
  V  V1  1  0.24144139  0.00678606  0.38161606  1
  V  V2  1  0.24144139  0.49321394  0.38161606  1
  V  V3  1  0.25855861  0.50678606  0.88161606  1
  V  V4  1  0.25855861  0.99321394  0.88161606  1
  V  V5  1  0.52483757  0.75000000  0.37588011  1
  V  V6  1  0.47516243  0.25000000  0.62411989  1
  V  V7  1  0.74144139  0.00678606  0.11838394  1
  V  V8  1  0.74144139  0.49321394  0.11838394  1
  V  V9  1  0.75855861  0.50678606  0.61838394  1
  V  V10  1  0.75855861  0.99321394  0.61838394  1
  V  V11  1  0.02483757  0.75000000  0.12411989  1
