# generated using pymatgen
data_4591_Mo2Sn
_symmetry_space_group_name_H-M   'I4/mmm'
_cell_length_a   5.29698976
_cell_length_b   5.29698976
_cell_length_c   5.29698976
_cell_angle_alpha   143.61498461
_cell_angle_beta   143.56702427
_cell_angle_gamma   52.43933467
_chemical_formula_structural   Mo2Sn
_chemical_formula_sum   'Mo2 Sn1'
_cell_volume   52.05228126
loop_
 _symmetry_equiv_pos_site_id
 _symmetry_equiv_pos_as_xyz
  1  'x, y, z'
loop_
 _atom_type_symbol
  Mo
  Sn
loop_
 _atom_site_type_symbol
 _atom_site_label
 _atom_site_symmetry_multiplicity
 _atom_site_fract_x
 _atom_site_fract_y
 _atom_site_fract_z
 _atom_site_occupancy
  Mo  Mo0  1  0.67755241  0.67755241  0.00000000  1
  Mo  Mo1  1  0.32244759  0.32244759  0.00000000  1
  Sn  Sn0  1  0.00000000  0.00000000  0.00000000  1
