# generated using pymatgen
data_4592_In3Mn
_symmetry_space_group_name_H-M   'Imm2'
_cell_length_a   6.07315427
_cell_length_b   6.07315427
_cell_length_c   6.07315427
_cell_angle_alpha   147.75955814
_cell_angle_beta   129.18369510
_cell_angle_gamma   61.46956087
_chemical_formula_structural   In3Mn
_chemical_formula_sum   'In3 Mn1'
_cell_volume   91.74773629
loop_
 _symmetry_equiv_pos_site_id
 _symmetry_equiv_pos_as_xyz
  1  'x, y, z'
loop_
 _atom_type_symbol
  In
  Mn
loop_
 _atom_site_type_symbol
 _atom_site_label
 _atom_site_symmetry_multiplicity
 _atom_site_fract_x
 _atom_site_fract_y
 _atom_site_fract_z
 _atom_site_occupancy
  In  In0  1  0.01931996  0.01726998  0.00204998  1
  In  In1  1  0.48478000  0.48273002  0.00204998  1
  In  In2  1  0.89628086  0.25000000  0.64628086  1
  Mn  Mn0  1  0.43295252  0.75000000  0.68295252  1
