# generated using pymatgen
data_4595_MnW3
_symmetry_space_group_name_H-M   'Pmmm'
_cell_length_a   2.69508640
_cell_length_b   3.87546495
_cell_length_c   5.89612912
_cell_angle_alpha   90.00000000
_cell_angle_beta   90.00000000
_cell_angle_gamma   90.00000000
_chemical_formula_structural   MnW3
_chemical_formula_sum   'Mn1 W3'
_cell_volume   61.58337573
loop_
 _symmetry_equiv_pos_site_id
 _symmetry_equiv_pos_as_xyz
  1  'x, y, z'
loop_
 _atom_type_symbol
  Mn
  W
loop_
 _atom_site_type_symbol
 _atom_site_label
 _atom_site_symmetry_multiplicity
 _atom_site_fract_x
 _atom_site_fract_y
 _atom_site_fract_z
 _atom_site_occupancy
  Mn  Mn0  1  0.00000000  0.00000000  0.00000000  1
  W  W0  1  0.00000000  0.00000000  0.50000000  1
  W  W1  1  0.50000000  0.50000000  0.23828939  1
  W  W2  1  0.50000000  0.50000000  0.76171061  1
