# generated using pymatgen
data_4597_NiGe4
_symmetry_space_group_name_H-M   'I4/mmm'
_cell_length_a   5.10469942
_cell_length_b   5.10469942
_cell_length_c   5.10469942
_cell_angle_alpha   119.84072374
_cell_angle_beta   119.84072374
_cell_angle_gamma   90.27609667
_chemical_formula_structural   NiGe4
_chemical_formula_sum   'Ge4 Ni1'
_cell_volume   94.28320862
loop_
 _symmetry_equiv_pos_site_id
 _symmetry_equiv_pos_as_xyz
  1  'x, y, z'
loop_
 _atom_type_symbol
  Ge
  Ni
loop_
 _atom_site_type_symbol
 _atom_site_label
 _atom_site_symmetry_multiplicity
 _atom_site_fract_x
 _atom_site_fract_y
 _atom_site_fract_z
 _atom_site_occupancy
  Ge  Ge0  1  0.25000000  0.75000000  0.50000000  1
  Ge  Ge1  1  0.75000000  0.25000000  0.50000000  1
  Ge  Ge2  1  0.67098486  0.67098486  0.00000000  1
  Ge  Ge3  1  0.32901514  0.32901514  0.00000000  1
  Ni  Ni0  1  0.00000000  0.00000000  0.00000000  1
