# generated using pymatgen
data_4599_AuNi3
_symmetry_space_group_name_H-M   'Imm2'
_cell_length_a   5.01588885
_cell_length_b   5.01588885
_cell_length_c   5.01588885
_cell_angle_alpha   148.84519214
_cell_angle_beta   127.47662490
_cell_angle_gamma   62.34087397
_chemical_formula_structural   AuNi3
_chemical_formula_sum   'Au1 Ni3'
_cell_volume   51.31977844
loop_
 _symmetry_equiv_pos_site_id
 _symmetry_equiv_pos_as_xyz
  1  'x, y, z'
loop_
 _atom_type_symbol
  Au
  Ni
loop_
 _atom_site_type_symbol
 _atom_site_label
 _atom_site_symmetry_multiplicity
 _atom_site_fract_x
 _atom_site_fract_y
 _atom_site_fract_z
 _atom_site_occupancy
  Au  Au0  1  0.97954330  0.00000000  0.97954330  1
  Ni  Ni0  1  0.11143922  0.75981260  0.35162662  1
  Ni  Ni1  1  0.48387012  0.50000000  0.98387012  1
  Ni  Ni2  1  0.59181402  0.24018740  0.35162662  1
