# generated using pymatgen
data_4600_Sr8Br16
_symmetry_space_group_name_H-M   'Fd -3 m'
_cell_length_a   10.51995145
_cell_length_b   10.51995145
_cell_length_c   10.51995145
_cell_angle_alpha   60.00000000
_cell_angle_beta   60.00000000
_cell_angle_gamma   60.00000000
_chemical_formula_structural   Sr8Br16
_chemical_formula_sum   'Br16 Sr8'
_cell_volume   823.23951688
loop_
 _symmetry_equiv_pos_site_id
 _symmetry_equiv_pos_as_xyz
  1  'x, y, z'
loop_
 _atom_type_symbol
  Br
  Sr
loop_
 _atom_site_type_symbol
 _atom_site_label
 _atom_site_symmetry_multiplicity
 _atom_site_fract_x
 _atom_site_fract_y
 _atom_site_fract_z
 _atom_site_occupancy
  Br  Br0  1  0.00000000  0.50000000  0.00000000  1
  Br  Br1  1  0.50000000  0.00000000  1.00000000  1
  Br  Br2  1  0.50000000  0.50000000  1.00000000  1
  Br  Br3  1  0.50000000  0.50000000  0.50000000  1
  Br  Br4  1  0.91662792  0.91662792  0.83337208  1
  Br  Br5  1  0.91662792  0.33337208  0.83337208  1
  Br  Br6  1  0.33337208  0.91662792  0.83337208  1
  Br  Br7  1  0.91662792  0.33337208  0.41662792  1
  Br  Br8  1  0.33337208  0.91662792  0.41662792  1
  Br  Br9  1  0.33337208  0.33337208  0.41662792  1
  Br  Br10  1  0.08337208  0.08337208  0.16662792  1
  Br  Br11  1  0.08337208  0.66662792  0.16662792  1
  Br  Br12  1  0.66662792  0.08337208  0.16662792  1
  Br  Br13  1  0.08337208  0.66662792  0.58337208  1
  Br  Br14  1  0.66662792  0.08337208  0.58337208  1
  Br  Br15  1  0.66662792  0.66662792  0.58337208  1
  Sr  Sr0  1  0.74297941  0.74297941  0.77106178  1
  Sr  Sr1  1  0.74297941  0.74297941  0.24297941  1
  Sr  Sr2  1  0.74297941  0.27106178  0.24297941  1
  Sr  Sr3  1  0.27106178  0.74297941  0.24297941  1
  Sr  Sr4  1  0.25702059  0.25702059  0.22893822  1
  Sr  Sr5  1  0.25702059  0.25702059  0.75702059  1
  Sr  Sr6  1  0.25702059  0.72893822  0.75702059  1
  Sr  Sr7  1  0.72893822  0.25702059  0.75702059  1
