# generated using pymatgen
data_4602_Mo8W
_symmetry_space_group_name_H-M   'I4/mmm'
_cell_length_a   4.01218789
_cell_length_b   6.34013937
_cell_length_c   6.34013937
_cell_angle_alpha   95.74586939
_cell_angle_beta   108.44605477
_cell_angle_gamma   71.55394523
_chemical_formula_structural   Mo8W
_chemical_formula_sum   'Mo8 W1'
_cell_volume   145.13268924
loop_
 _symmetry_equiv_pos_site_id
 _symmetry_equiv_pos_as_xyz
  1  'x, y, z'
loop_
 _atom_type_symbol
  Mo
  W
loop_
 _atom_site_type_symbol
 _atom_site_label
 _atom_site_symmetry_multiplicity
 _atom_site_fract_x
 _atom_site_fract_y
 _atom_site_fract_z
 _atom_site_occupancy
  Mo  Mo0  1  0.66668245  0.00000000  0.33336489  1
  Mo  Mo1  1  0.33331755  0.00000000  0.66663511  1
  Mo  Mo2  1  0.00000000  0.33335108  0.33335108  1
  Mo  Mo3  1  0.33331755  0.33336489  0.00000000  1
  Mo  Mo4  1  0.66664892  0.33335108  0.66664892  1
  Mo  Mo5  1  0.66668245  0.66663511  0.00000000  1
  Mo  Mo6  1  1.00000000  0.66664892  0.66664892  1
  Mo  Mo7  1  0.33335108  0.66664892  0.33335108  1
  W  W0  1  0.00000000  0.00000000  0.00000000  1
