# generated using pymatgen
data_4604_Ba2As4
_symmetry_space_group_name_H-M   'Cmcm'
_cell_length_a   10.04374651
_cell_length_b   10.04374651
_cell_length_c   4.15494353
_cell_angle_alpha   90.00000000
_cell_angle_beta   90.00000000
_cell_angle_gamma   155.09869372
_chemical_formula_structural   Ba2As4
_chemical_formula_sum   'As4 Ba2'
_cell_volume   176.48060370
loop_
 _symmetry_equiv_pos_site_id
 _symmetry_equiv_pos_as_xyz
  1  'x, y, z'
loop_
 _atom_type_symbol
  As
  Ba
loop_
 _atom_site_type_symbol
 _atom_site_label
 _atom_site_symmetry_multiplicity
 _atom_site_fract_x
 _atom_site_fract_y
 _atom_site_fract_z
 _atom_site_occupancy
  As  As0  1  0.46517322  0.53482678  0.25000000  1
  As  As1  1  0.53482678  0.46517322  0.75000000  1
  As  As2  1  0.74739780  0.25260220  0.25000000  1
  As  As3  1  0.25260220  0.74739780  0.75000000  1
  Ba  Ba0  1  0.11437869  0.88562131  0.25000000  1
  Ba  Ba1  1  0.88562131  0.11437869  0.75000000  1
