# generated using pymatgen
data_4605_Cu6Ir2
_symmetry_space_group_name_H-M   'I4/mmm'
_cell_length_a   3.74003455
_cell_length_b   3.74003455
_cell_length_c   7.72436119
_cell_angle_alpha   104.01013072
_cell_angle_beta   104.01013072
_cell_angle_gamma   90.00000000
_chemical_formula_structural   Cu6Ir2
_chemical_formula_sum   'Cu6 Ir2'
_cell_volume   101.51738392
loop_
 _symmetry_equiv_pos_site_id
 _symmetry_equiv_pos_as_xyz
  1  'x, y, z'
loop_
 _atom_type_symbol
  Cu
  Ir
loop_
 _atom_site_type_symbol
 _atom_site_label
 _atom_site_symmetry_multiplicity
 _atom_site_fract_x
 _atom_site_fract_y
 _atom_site_fract_z
 _atom_site_occupancy
  Cu  Cu0  1  0.00000000  0.50000000  0.00000000  1
  Cu  Cu1  1  0.12598040  0.12598040  0.25196080  1
  Cu  Cu2  1  0.87401960  0.87401960  0.74803920  1
  Cu  Cu3  1  0.25000000  0.75000000  0.50000000  1
  Cu  Cu4  1  0.75000000  0.25000000  0.50000000  1
  Cu  Cu5  1  0.50000000  0.00000000  0.00000000  1
  Ir  Ir0  1  0.37531499  0.37531499  0.75062997  1
  Ir  Ir1  1  0.62468501  0.62468501  0.24937003  1
