# generated using pymatgen
data_4606_MoNb5
_symmetry_space_group_name_H-M   'Cmmm'
_cell_length_a   5.43962909
_cell_length_b   5.43962909
_cell_length_c   4.65042025
_cell_angle_alpha   90.00000000
_cell_angle_beta   90.00000000
_cell_angle_gamma   130.05581609
_chemical_formula_structural   MoNb5
_chemical_formula_sum   'Mo1 Nb5'
_cell_volume   105.32449537
loop_
 _symmetry_equiv_pos_site_id
 _symmetry_equiv_pos_as_xyz
  1  'x, y, z'
loop_
 _atom_type_symbol
  Mo
  Nb
loop_
 _atom_site_type_symbol
 _atom_site_label
 _atom_site_symmetry_multiplicity
 _atom_site_fract_x
 _atom_site_fract_y
 _atom_site_fract_z
 _atom_site_occupancy
  Mo  Mo0  1  0.97223113  0.02776887  0.00000000  1
  Nb  Nb0  1  0.80886523  0.19113477  0.50000000  1
  Nb  Nb1  1  0.63542373  0.36457627  0.00000000  1
  Nb  Nb2  1  0.47222166  0.52777834  0.50000000  1
  Nb  Nb3  1  0.30902745  0.69097255  0.00000000  1
  Nb  Nb4  1  0.13556415  0.86443585  0.50000000  1
