# generated using pymatgen
data_4608_Mn2Rh
_symmetry_space_group_name_H-M   'I4/mmm'
_cell_length_a   5.17223936
_cell_length_b   5.17223936
_cell_length_c   5.17223936
_cell_angle_alpha   147.68129497
_cell_angle_beta   147.68129497
_cell_angle_gamma   46.35606191
_chemical_formula_structural   Mn2Rh
_chemical_formula_sum   'Mn2 Rh1'
_cell_volume   39.40973797
loop_
 _symmetry_equiv_pos_site_id
 _symmetry_equiv_pos_as_xyz
  1  'x, y, z'
loop_
 _atom_type_symbol
  Mn
  Rh
loop_
 _atom_site_type_symbol
 _atom_site_label
 _atom_site_symmetry_multiplicity
 _atom_site_fract_x
 _atom_site_fract_y
 _atom_site_fract_z
 _atom_site_occupancy
  Mn  Mn0  1  0.99778658  0.99778658  0.00000000  1
  Mn  Mn1  1  0.33554676  0.33554676  0.00000000  1
  Rh  Rh0  1  0.66666667  0.66666667  0.00000000  1
