# generated using pymatgen
data_4609_Ni2P2
_symmetry_space_group_name_H-M   'Cmcm'
_cell_length_a   5.01417569
_cell_length_b   5.01417569
_cell_length_c   3.20328373
_cell_angle_alpha   90.00000000
_cell_angle_beta   90.00000000
_cell_angle_gamma   142.61525872
_chemical_formula_structural   Ni2P2
_chemical_formula_sum   'Ni2 P2'
_cell_volume   48.89908093
loop_
 _symmetry_equiv_pos_site_id
 _symmetry_equiv_pos_as_xyz
  1  'x, y, z'
loop_
 _atom_type_symbol
  Ni
  P
loop_
 _atom_site_type_symbol
 _atom_site_label
 _atom_site_symmetry_multiplicity
 _atom_site_fract_x
 _atom_site_fract_y
 _atom_site_fract_z
 _atom_site_occupancy
  Ni  Ni0  1  0.60402418  0.39597582  0.75000000  1
  Ni  Ni1  1  0.39597582  0.60402418  0.25000000  1
  P  P0  1  0.84455012  0.15544988  0.75000000  1
  P  P1  1  0.15544988  0.84455012  0.25000000  1
