# generated using pymatgen
data_4610_BaNb3
_symmetry_space_group_name_H-M   'Immm'
_cell_length_a   5.83099526
_cell_length_b   5.83099526
_cell_length_c   5.83099526
_cell_angle_alpha   145.69170797
_cell_angle_beta   128.47900476
_cell_angle_gamma   63.36888827
_chemical_formula_structural   BaNb3
_chemical_formula_sum   'Ba1 Nb3'
_cell_volume   86.50331388
loop_
 _symmetry_equiv_pos_site_id
 _symmetry_equiv_pos_as_xyz
  1  'x, y, z'
loop_
 _atom_type_symbol
  Ba
  Nb
loop_
 _atom_site_type_symbol
 _atom_site_label
 _atom_site_symmetry_multiplicity
 _atom_site_fract_x
 _atom_site_fract_y
 _atom_site_fract_z
 _atom_site_occupancy
  Ba  Ba0  1  0.00000000  0.00000000  0.00000000  1
  Nb  Nb0  1  0.73511141  0.23511141  0.50000000  1
  Nb  Nb1  1  0.50000000  0.50000000  1.00000000  1
  Nb  Nb2  1  0.26488859  0.76488859  0.50000000  1
