# generated using pymatgen
data_4619_Ba2In4
_symmetry_space_group_name_H-M   'C2/m'
_cell_length_a   7.71033317
_cell_length_b   7.71033317
_cell_length_c   7.26716704
_cell_angle_alpha   62.67046323
_cell_angle_beta   62.67046323
_cell_angle_gamma   34.64982147
_chemical_formula_structural   Ba2In4
_chemical_formula_sum   'Ba2 In4'
_cell_volume   215.36164487
loop_
 _symmetry_equiv_pos_site_id
 _symmetry_equiv_pos_as_xyz
  1  'x, y, z'
loop_
 _atom_type_symbol
  Ba
  In
loop_
 _atom_site_type_symbol
 _atom_site_label
 _atom_site_symmetry_multiplicity
 _atom_site_fract_x
 _atom_site_fract_y
 _atom_site_fract_z
 _atom_site_occupancy
  Ba  Ba0  1  0.02287254  0.02287254  0.03211624  1
  Ba  Ba1  1  0.36601635  0.36601635  0.69010598  1
  In  In0  1  0.69370497  0.69370497  0.58075288  1
  In  In1  1  0.31321890  0.31321890  0.24449787  1
  In  In2  1  0.07566999  0.07566999  0.47772436  1
  In  In3  1  0.69518392  0.69518392  0.14146934  1
