# generated using pymatgen
data_4623_AgGa5
_symmetry_space_group_name_H-M   'Amm2'
_cell_length_a   7.88774509
_cell_length_b   7.88774509
_cell_length_c   4.76063377
_cell_angle_alpha   90.00000000
_cell_angle_beta   90.00000000
_cell_angle_gamma   157.98409344
_chemical_formula_structural   AgGa5
_chemical_formula_sum   'Ag1 Ga5'
_cell_volume   111.03099321
loop_
 _symmetry_equiv_pos_site_id
 _symmetry_equiv_pos_as_xyz
  1  'x, y, z'
loop_
 _atom_type_symbol
  Ag
  Ga
loop_
 _atom_site_type_symbol
 _atom_site_label
 _atom_site_symmetry_multiplicity
 _atom_site_fract_x
 _atom_site_fract_y
 _atom_site_fract_z
 _atom_site_occupancy
  Ag  Ag0  1  0.99991381  0.00008619  0.00000000  1
  Ga  Ga0  1  0.33385123  0.66614877  0.00000000  1
  Ga  Ga1  1  0.66612402  0.33387598  0.00000000  1
  Ga  Ga2  1  0.44539539  0.55460461  0.50000000  1
  Ga  Ga3  1  0.77738532  0.22261468  0.50000000  1
  Ga  Ga4  1  0.11066357  0.88933643  0.50000000  1
