# generated using pymatgen
data_4628_Pt16Rb8
_symmetry_space_group_name_H-M   'Fd -3 m'
_cell_length_a   10.52226390
_cell_length_b   10.52226390
_cell_length_c   10.52226390
_cell_angle_alpha   60.00000000
_cell_angle_beta   60.00000000
_cell_angle_gamma   60.00000000
_chemical_formula_structural   Pt16Rb8
_chemical_formula_sum   'Pt16 Rb8'
_cell_volume   823.78251932
loop_
 _symmetry_equiv_pos_site_id
 _symmetry_equiv_pos_as_xyz
  1  'x, y, z'
loop_
 _atom_type_symbol
  Pt
  Rb
loop_
 _atom_site_type_symbol
 _atom_site_label
 _atom_site_symmetry_multiplicity
 _atom_site_fract_x
 _atom_site_fract_y
 _atom_site_fract_z
 _atom_site_occupancy
  Pt  Pt0  1  0.50000000  0.00000000  0.50000000  1
  Pt  Pt1  1  0.50000000  0.00000000  0.00000000  1
  Pt  Pt2  1  0.00000000  0.00000000  0.50000000  1
  Pt  Pt3  1  0.50000000  0.50000000  0.50000000  1
  Pt  Pt4  1  0.49241533  0.99241533  0.75758467  1
  Pt  Pt5  1  0.75758467  0.99241533  0.49241533  1
  Pt  Pt6  1  0.75758467  0.99241533  0.75758467  1
  Pt  Pt7  1  0.49241533  0.25758467  0.49241533  1
  Pt  Pt8  1  0.49241533  0.25758467  0.75758467  1
  Pt  Pt9  1  0.75758467  0.25758467  0.49241533  1
  Pt  Pt10  1  0.50758467  0.00758467  0.24241533  1
  Pt  Pt11  1  0.24241533  0.00758467  0.50758467  1
  Pt  Pt12  1  0.24241533  0.00758467  0.24241533  1
  Pt  Pt13  1  0.50758467  0.74241533  0.50758467  1
  Pt  Pt14  1  0.50758467  0.74241533  0.24241533  1
  Pt  Pt15  1  0.24241533  0.74241533  0.50758467  1
  Rb  Rb0  1  0.77665925  0.67002225  0.77665925  1
  Rb  Rb1  1  0.17002225  0.27665925  0.77665925  1
  Rb  Rb2  1  0.77665925  0.27665925  0.17002225  1
  Rb  Rb3  1  0.77665925  0.27665925  0.77665925  1
  Rb  Rb4  1  0.22334075  0.32997775  0.22334075  1
  Rb  Rb5  1  0.82997775  0.72334075  0.22334075  1
  Rb  Rb6  1  0.22334075  0.72334075  0.82997775  1
  Rb  Rb7  1  0.22334075  0.72334075  0.22334075  1
