# generated using pymatgen
data_4629_Pd3V
_symmetry_space_group_name_H-M   'Pmmm'
_cell_length_a   2.75524995
_cell_length_b   3.85139323
_cell_length_c   5.55320603
_cell_angle_alpha   90.00000000
_cell_angle_beta   90.00000000
_cell_angle_gamma   90.00000000
_chemical_formula_structural   Pd3V
_chemical_formula_sum   'Pd3 V1'
_cell_volume   58.92812890
loop_
 _symmetry_equiv_pos_site_id
 _symmetry_equiv_pos_as_xyz
  1  'x, y, z'
loop_
 _atom_type_symbol
  Pd
  V
loop_
 _atom_site_type_symbol
 _atom_site_label
 _atom_site_symmetry_multiplicity
 _atom_site_fract_x
 _atom_site_fract_y
 _atom_site_fract_z
 _atom_site_occupancy
  Pd  Pd0  1  0.00000000  0.00000000  0.00922638  1
  Pd  Pd1  1  0.00000000  0.00000000  0.49077362  1
  Pd  Pd2  1  0.50000000  0.50000000  0.75000000  1
  V  V0  1  0.50000000  0.50000000  0.25000000  1
