# generated using pymatgen
data_462_Fe2Pb4
_symmetry_space_group_name_H-M   'Pnnm'
_cell_length_a   3.44484254
_cell_length_b   6.38102226
_cell_length_c   6.14665951
_cell_angle_alpha   90.00000000
_cell_angle_beta   90.00000000
_cell_angle_gamma   90.00000000
_chemical_formula_structural   Fe2Pb4
_chemical_formula_sum   'Fe2 Pb4'
_cell_volume   135.11351475
loop_
 _symmetry_equiv_pos_site_id
 _symmetry_equiv_pos_as_xyz
  1  'x, y, z'
loop_
 _atom_type_symbol
  Fe
  Pb
loop_
 _atom_site_type_symbol
 _atom_site_label
 _atom_site_symmetry_multiplicity
 _atom_site_fract_x
 _atom_site_fract_y
 _atom_site_fract_z
 _atom_site_occupancy
  Fe  Fe0  1  0.00000000  0.00000000  0.00000000  1
  Fe  Fe1  1  0.50000000  0.50000000  0.50000000  1
  Pb  Pb0  1  0.00000000  0.23466108  0.66846241  1
  Pb  Pb1  1  0.00000000  0.76533892  0.33153759  1
  Pb  Pb2  1  0.50000000  0.73466108  0.83153759  1
  Pb  Pb3  1  0.50000000  0.26533892  0.16846241  1
