# generated using pymatgen
data_4630_Nb2V4
_symmetry_space_group_name_H-M   'I4_1/amd'
_cell_length_a   3.37579523
_cell_length_b   8.63272364
_cell_length_c   3.37579523
_cell_angle_alpha   78.72471186
_cell_angle_beta   90.00000000
_cell_angle_gamma   101.27528814
_chemical_formula_structural   Nb2V4
_chemical_formula_sum   'Nb2 V4'
_cell_volume   94.54274455
loop_
 _symmetry_equiv_pos_site_id
 _symmetry_equiv_pos_as_xyz
  1  'x, y, z'
loop_
 _atom_type_symbol
  Nb
  V
loop_
 _atom_site_type_symbol
 _atom_site_label
 _atom_site_symmetry_multiplicity
 _atom_site_fract_x
 _atom_site_fract_y
 _atom_site_fract_z
 _atom_site_occupancy
  Nb  Nb0  1  0.00000000  0.00000000  0.00000000  1
  Nb  Nb1  1  0.75000000  0.50000000  0.75000000  1
  V  V0  1  0.17373975  0.34747951  0.32626025  1
  V  V1  1  0.32626025  0.65252049  0.17373975  1
  V  V2  1  0.42373975  0.84747951  0.57626025  1
  V  V3  1  0.57626025  0.15252049  0.42373975  1
