# generated using pymatgen
data_4632_Al5K
_symmetry_space_group_name_H-M   'P4/mmm'
_cell_length_a   2.96642670
_cell_length_b   2.96642670
_cell_length_c   13.60587765
_cell_angle_alpha   90.00000000
_cell_angle_beta   90.00000000
_cell_angle_gamma   90.00000000
_chemical_formula_structural   Al5K
_chemical_formula_sum   'Al5 K1'
_cell_volume   119.72746967
loop_
 _symmetry_equiv_pos_site_id
 _symmetry_equiv_pos_as_xyz
  1  'x, y, z'
loop_
 _atom_type_symbol
  Al
  K
loop_
 _atom_site_type_symbol
 _atom_site_label
 _atom_site_symmetry_multiplicity
 _atom_site_fract_x
 _atom_site_fract_y
 _atom_site_fract_z
 _atom_site_occupancy
  Al  Al0  1  0.00000000  0.00000000  0.78833875  1
  Al  Al1  1  0.00000000  0.00000000  0.21166125  1
  Al  Al2  1  0.50000000  0.50000000  0.64490373  1
  Al  Al3  1  0.50000000  0.50000000  0.35509627  1
  Al  Al4  1  0.00000000  0.00000000  0.50000000  1
  K  K0  1  0.50000000  0.50000000  0.00000000  1
