# generated using pymatgen
data_4633_Au5Sb
_symmetry_space_group_name_H-M   'Amm2'
_cell_length_a   7.81587687
_cell_length_b   7.81587687
_cell_length_c   4.90712859
_cell_angle_alpha   90.00000000
_cell_angle_beta   90.00000000
_cell_angle_gamma   157.21712736
_chemical_formula_structural   Au5Sb
_chemical_formula_sum   'Au5 Sb1'
_cell_volume   116.08151455
loop_
 _symmetry_equiv_pos_site_id
 _symmetry_equiv_pos_as_xyz
  1  'x, y, z'
loop_
 _atom_type_symbol
  Au
  Sb
loop_
 _atom_site_type_symbol
 _atom_site_label
 _atom_site_symmetry_multiplicity
 _atom_site_fract_x
 _atom_site_fract_y
 _atom_site_fract_z
 _atom_site_occupancy
  Au  Au0  1  0.99651132  0.00348868  0.00000000  1
  Au  Au1  1  0.33317482  0.66682518  0.00000000  1
  Au  Au2  1  0.66947575  0.33052425  0.00000000  1
  Au  Au3  1  0.44180172  0.55819828  0.50000000  1
  Au  Au4  1  0.78196764  0.21803236  0.50000000  1
  Sb  Sb0  1  0.11040208  0.88959792  0.50000000  1
