# generated using pymatgen
data_4634_Cu16Ir8
_symmetry_space_group_name_H-M   'Fd -3 m'
_cell_length_a   7.84117013
_cell_length_b   7.84117013
_cell_length_c   7.84117013
_cell_angle_alpha   60.00000000
_cell_angle_beta   60.00000000
_cell_angle_gamma   60.00000000
_chemical_formula_structural   Cu16Ir8
_chemical_formula_sum   'Cu16 Ir8'
_cell_volume   340.90049544
loop_
 _symmetry_equiv_pos_site_id
 _symmetry_equiv_pos_as_xyz
  1  'x, y, z'
loop_
 _atom_type_symbol
  Cu
  Ir
loop_
 _atom_site_type_symbol
 _atom_site_label
 _atom_site_symmetry_multiplicity
 _atom_site_fract_x
 _atom_site_fract_y
 _atom_site_fract_z
 _atom_site_occupancy
  Cu  Cu0  1  0.50000000  0.00000000  0.50000000  1
  Cu  Cu1  1  0.50000000  0.00000000  0.00000000  1
  Cu  Cu2  1  0.00000000  0.00000000  0.50000000  1
  Cu  Cu3  1  0.50000000  0.50000000  0.50000000  1
  Cu  Cu4  1  0.31237040  0.81237040  0.93762960  1
  Cu  Cu5  1  0.93762960  0.81237040  0.31237040  1
  Cu  Cu6  1  0.93762960  0.81237040  0.93762960  1
  Cu  Cu7  1  0.31237040  0.43762960  0.31237040  1
  Cu  Cu8  1  0.31237040  0.43762960  0.93762960  1
  Cu  Cu9  1  0.93762960  0.43762960  0.31237040  1
  Cu  Cu10  1  0.68762960  0.18762960  0.06237040  1
  Cu  Cu11  1  0.06237040  0.18762960  0.68762960  1
  Cu  Cu12  1  0.06237040  0.18762960  0.06237040  1
  Cu  Cu13  1  0.68762960  0.56237040  0.68762960  1
  Cu  Cu14  1  0.68762960  0.56237040  0.06237040  1
  Cu  Cu15  1  0.06237040  0.56237040  0.68762960  1
  Ir  Ir0  1  0.71334904  0.85995288  0.71334904  1
  Ir  Ir1  1  0.35995288  0.21334904  0.71334904  1
  Ir  Ir2  1  0.71334904  0.21334904  0.35995288  1
  Ir  Ir3  1  0.71334904  0.21334904  0.71334904  1
  Ir  Ir4  1  0.28665096  0.14004712  0.28665096  1
  Ir  Ir5  1  0.64004712  0.78665096  0.28665096  1
  Ir  Ir6  1  0.28665096  0.78665096  0.64004712  1
  Ir  Ir7  1  0.28665096  0.78665096  0.28665096  1
