# generated using pymatgen
data_4644_PbPt3
_symmetry_space_group_name_H-M   'Pm -3 m'
_cell_length_a   4.11667100
_cell_length_b   4.11667100
_cell_length_c   4.11667100
_cell_angle_alpha   90.00000000
_cell_angle_beta   90.00000000
_cell_angle_gamma   90.00000000
_chemical_formula_structural   PbPt3
_chemical_formula_sum   'Pb1 Pt3'
_cell_volume   69.76514161
loop_
 _symmetry_equiv_pos_site_id
 _symmetry_equiv_pos_as_xyz
  1  'x, y, z'
loop_
 _atom_type_symbol
  Pb
  Pt
loop_
 _atom_site_type_symbol
 _atom_site_label
 _atom_site_symmetry_multiplicity
 _atom_site_fract_x
 _atom_site_fract_y
 _atom_site_fract_z
 _atom_site_occupancy
  Pb  Pb0  1  0.00000000  0.00000000  0.00000000  1
  Pt  Pt0  1  0.50000112  0.50000112  0.00000000  1
  Pt  Pt1  1  0.50000112  0.00000000  0.50000112  1
  Pt  Pt2  1  0.00000000  0.50000112  0.50000112  1
