# generated using pymatgen
data_4712_Fe6Nb2
_symmetry_space_group_name_H-M   'I4/mmm'
_cell_length_a   3.56660361
_cell_length_b   3.56660361
_cell_length_c   8.54174206
_cell_angle_alpha   77.94942896
_cell_angle_beta   77.94942896
_cell_angle_gamma   90.00000000
_chemical_formula_structural   Fe6Nb2
_chemical_formula_sum   'Fe6 Nb2'
_cell_volume   103.81262012
loop_
 _symmetry_equiv_pos_site_id
 _symmetry_equiv_pos_as_xyz
  1  'x, y, z'
loop_
 _atom_type_symbol
  Fe
  Nb
loop_
 _atom_site_type_symbol
 _atom_site_label
 _atom_site_symmetry_multiplicity
 _atom_site_fract_x
 _atom_site_fract_y
 _atom_site_fract_z
 _atom_site_occupancy
  Fe  Fe0  1  0.00000000  0.50000000  0.00000000  1
  Fe  Fe1  1  0.50000000  0.00000000  0.00000000  1
  Fe  Fe2  1  0.75000000  0.25000000  0.50000000  1
  Fe  Fe3  1  0.25000000  0.75000000  0.50000000  1
  Fe  Fe4  1  0.87734708  0.87734708  0.24530585  1
  Fe  Fe5  1  0.12265292  0.12265292  0.75469415  1
  Nb  Nb0  1  0.62499629  0.62499629  0.75000743  1
  Nb  Nb1  1  0.37500371  0.37500371  0.24999257  1
