# generated using pymatgen
data_4718_AgIn3
_symmetry_space_group_name_H-M   'Pmm2'
_cell_length_a   3.28163904
_cell_length_b   5.30300039
_cell_length_c   5.63113078
_cell_angle_alpha   90.00000000
_cell_angle_beta   90.00000000
_cell_angle_gamma   90.00000000
_chemical_formula_structural   AgIn3
_chemical_formula_sum   'Ag1 In3'
_cell_volume   97.99593984
loop_
 _symmetry_equiv_pos_site_id
 _symmetry_equiv_pos_as_xyz
  1  'x, y, z'
loop_
 _atom_type_symbol
  Ag
  In
loop_
 _atom_site_type_symbol
 _atom_site_label
 _atom_site_symmetry_multiplicity
 _atom_site_fract_x
 _atom_site_fract_y
 _atom_site_fract_z
 _atom_site_occupancy
  Ag  Ag0  1  0.00000000  0.00000000  0.99866478  1
  In  In0  1  0.50000000  0.00000000  0.50139734  1
  In  In1  1  0.50000000  0.50000000  0.84092918  1
  In  In2  1  0.00000000  0.50000000  0.32567537  1
