# generated using pymatgen
data_4730_Au3Ba5
_symmetry_space_group_name_H-M   'Cmmm'
_cell_length_a   8.19384879
_cell_length_b   8.19384879
_cell_length_c   5.17670970
_cell_angle_alpha   90.00000000
_cell_angle_beta   90.00000000
_cell_angle_gamma   109.93528452
_chemical_formula_structural   Au3Ba5
_chemical_formula_sum   'Au3 Ba5'
_cell_volume   326.73355985
loop_
 _symmetry_equiv_pos_site_id
 _symmetry_equiv_pos_as_xyz
  1  'x, y, z'
loop_
 _atom_type_symbol
  Au
  Ba
loop_
 _atom_site_type_symbol
 _atom_site_label
 _atom_site_symmetry_multiplicity
 _atom_site_fract_x
 _atom_site_fract_y
 _atom_site_fract_z
 _atom_site_occupancy
  Au  Au0  1  0.50000000  0.50000000  0.00000000  1
  Au  Au1  1  0.83580033  0.16419967  0.50000000  1
  Au  Au2  1  0.16419967  0.83580033  0.50000000  1
  Ba  Ba0  1  0.00000000  0.00000000  0.00000000  1
  Ba  Ba1  1  0.00000000  0.50000000  0.00000000  1
  Ba  Ba2  1  0.50000000  0.00000000  0.00000000  1
  Ba  Ba3  1  0.29636733  0.29636733  0.50000000  1
  Ba  Ba4  1  0.70363267  0.70363267  0.50000000  1
