# generated using pymatgen
data_4731_MoBr3
_symmetry_space_group_name_H-M   'Pmm2'
_cell_length_a   3.20474837
_cell_length_b   3.29889883
_cell_length_c   9.59503312
_cell_angle_alpha   90.00000000
_cell_angle_beta   90.00000000
_cell_angle_gamma   90.00000000
_chemical_formula_structural   MoBr3
_chemical_formula_sum   'Br3 Mo1'
_cell_volume   101.44003967
loop_
 _symmetry_equiv_pos_site_id
 _symmetry_equiv_pos_as_xyz
  1  'x, y, z'
loop_
 _atom_type_symbol
  Br
  Mo
loop_
 _atom_site_type_symbol
 _atom_site_label
 _atom_site_symmetry_multiplicity
 _atom_site_fract_x
 _atom_site_fract_y
 _atom_site_fract_z
 _atom_site_occupancy
  Br  Br0  1  0.00000000  0.00000000  0.11124107  1
  Br  Br1  1  0.50000000  0.00000000  0.45460592  1
  Br  Br2  1  0.50000000  0.50000000  0.79524345  1
  Mo  Mo0  1  0.00000000  0.50000000  0.30557623  1
