# generated using pymatgen
data_4734_Fe4Pd6
_symmetry_space_group_name_H-M   'Fdd2'
_cell_length_a   5.20839345
_cell_length_b   5.20839345
_cell_length_c   6.95252728
_cell_angle_alpha   80.85579780
_cell_angle_beta   80.85579780
_cell_angle_gamma   125.15045869
_chemical_formula_structural   Fe4Pd6
_chemical_formula_sum   'Fe4 Pd6'
_cell_volume   144.74013564
loop_
 _symmetry_equiv_pos_site_id
 _symmetry_equiv_pos_as_xyz
  1  'x, y, z'
loop_
 _atom_type_symbol
  Fe
  Pd
loop_
 _atom_site_type_symbol
 _atom_site_label
 _atom_site_symmetry_multiplicity
 _atom_site_fract_x
 _atom_site_fract_y
 _atom_site_fract_z
 _atom_site_occupancy
  Fe  Fe0  1  0.64317887  0.19442318  0.90230709  1
  Fe  Fe1  1  0.09673027  0.54548596  0.09769291  1
  Fe  Fe2  1  0.29548596  0.34673027  0.59769291  1
  Fe  Fe3  1  0.94442318  0.89317887  0.40230709  1
  Pd  Pd0  1  0.65033419  0.73541650  0.79195263  1
  Pd  Pd1  1  0.52736913  0.44228682  0.20804737  1
  Pd  Pd2  1  0.19228682  0.77736913  0.70804737  1
  Pd  Pd3  1  0.48541650  0.90033419  0.29195263  1
  Pd  Pd4  1  0.08238754  0.08238754  0.00000000  1
  Pd  Pd5  1  0.83238754  0.33238754  0.50000000  1
