# generated using pymatgen
data_4737_Fe2Nb4
_symmetry_space_group_name_H-M   'Pnnm'
_cell_length_a   5.62809046
_cell_length_b   6.20672935
_cell_length_c   2.91370824
_cell_angle_alpha   90.00000000
_cell_angle_beta   90.00000000
_cell_angle_gamma   90.00000000
_chemical_formula_structural   Fe2Nb4
_chemical_formula_sum   'Fe2 Nb4'
_cell_volume   101.78175601
loop_
 _symmetry_equiv_pos_site_id
 _symmetry_equiv_pos_as_xyz
  1  'x, y, z'
loop_
 _atom_type_symbol
  Fe
  Nb
loop_
 _atom_site_type_symbol
 _atom_site_label
 _atom_site_symmetry_multiplicity
 _atom_site_fract_x
 _atom_site_fract_y
 _atom_site_fract_z
 _atom_site_occupancy
  Fe  Fe0  1  0.00000000  0.00000000  0.00000000  1
  Fe  Fe1  1  0.50000000  0.50000000  0.50000000  1
  Nb  Nb0  1  0.19400456  0.33994885  0.00000000  1
  Nb  Nb1  1  0.80599544  0.66005115  0.00000000  1
  Nb  Nb2  1  0.69400456  0.16005115  0.50000000  1
  Nb  Nb3  1  0.30599544  0.83994885  0.50000000  1
