# generated using pymatgen
data_473_Ba4Br
_symmetry_space_group_name_H-M   'I4/mmm'
_cell_length_a   11.79136617
_cell_length_b   11.79136617
_cell_length_c   11.79136617
_cell_angle_alpha   155.66700728
_cell_angle_beta   155.66700728
_cell_angle_gamma   34.68104540
_chemical_formula_structural   Ba4Br
_chemical_formula_sum   'Ba4 Br1'
_cell_volume   278.03507631
loop_
 _symmetry_equiv_pos_site_id
 _symmetry_equiv_pos_as_xyz
  1  'x, y, z'
loop_
 _atom_type_symbol
  Ba
  Br
loop_
 _atom_site_type_symbol
 _atom_site_label
 _atom_site_symmetry_multiplicity
 _atom_site_fract_x
 _atom_site_fract_y
 _atom_site_fract_z
 _atom_site_occupancy
  Ba  Ba0  1  0.25000000  0.75000000  0.50000000  1
  Ba  Ba1  1  0.75000000  0.25000000  0.50000000  1
  Ba  Ba2  1  0.58974851  0.58974851  0.00000000  1
  Ba  Ba3  1  0.41025149  0.41025149  0.00000000  1
  Br  Br0  1  0.00000000  0.00000000  0.00000000  1
