# generated using pymatgen
data_4740_Mn2Na4
_symmetry_space_group_name_H-M   'C2/m'
_cell_length_a   6.78643710
_cell_length_b   6.78643710
_cell_length_c   7.96786008
_cell_angle_alpha   78.51796894
_cell_angle_beta   78.51796894
_cell_angle_gamma   25.53521678
_chemical_formula_structural   Mn2Na4
_chemical_formula_sum   'Mn2 Na4'
_cell_volume   154.85626110
loop_
 _symmetry_equiv_pos_site_id
 _symmetry_equiv_pos_as_xyz
  1  'x, y, z'
loop_
 _atom_type_symbol
  Mn
  Na
loop_
 _atom_site_type_symbol
 _atom_site_label
 _atom_site_symmetry_multiplicity
 _atom_site_fract_x
 _atom_site_fract_y
 _atom_site_fract_z
 _atom_site_occupancy
  Mn  Mn0  1  0.66654434  0.66654434  0.62841153  1
  Mn  Mn1  1  0.61123452  0.61123452  0.31606628  1
  Na  Na0  1  0.01899770  0.01899770  0.99948530  1
  Na  Na1  1  0.32946301  0.32946301  0.32725460  1
  Na  Na2  1  0.94829822  0.94829822  0.61717438  1
  Na  Na3  1  0.25879554  0.25879554  0.94527814  1
