# generated using pymatgen
data_4741_Ni2Ge4
_symmetry_space_group_name_H-M   'Pnnm'
_cell_length_a   2.83329623
_cell_length_b   5.71398959
_cell_length_c   5.82180568
_cell_angle_alpha   90.00000000
_cell_angle_beta   90.00000000
_cell_angle_gamma   90.00000000
_chemical_formula_structural   Ni2Ge4
_chemical_formula_sum   'Ge4 Ni2'
_cell_volume   94.25168737
loop_
 _symmetry_equiv_pos_site_id
 _symmetry_equiv_pos_as_xyz
  1  'x, y, z'
loop_
 _atom_type_symbol
  Ge
  Ni
loop_
 _atom_site_type_symbol
 _atom_site_label
 _atom_site_symmetry_multiplicity
 _atom_site_fract_x
 _atom_site_fract_y
 _atom_site_fract_z
 _atom_site_occupancy
  Ge  Ge0  1  0.00000000  0.18261948  0.63038095  1
  Ge  Ge1  1  0.00000000  0.81738052  0.36961905  1
  Ge  Ge2  1  0.50000000  0.68261948  0.86961905  1
  Ge  Ge3  1  0.50000000  0.31738052  0.13038095  1
  Ni  Ni0  1  0.00000000  0.00000000  0.00000000  1
  Ni  Ni1  1  0.50000000  0.50000000  0.50000000  1
