# generated using pymatgen
data_4745_Ba5Pb
_symmetry_space_group_name_H-M   'Cmmm'
_cell_length_a   9.79584405
_cell_length_b   9.79584405
_cell_length_c   6.01822163
_cell_angle_alpha   90.00000000
_cell_angle_beta   90.00000000
_cell_angle_gamma   147.11769765
_chemical_formula_structural   Ba5Pb
_chemical_formula_sum   'Ba5 Pb1'
_cell_volume   313.53339646
loop_
 _symmetry_equiv_pos_site_id
 _symmetry_equiv_pos_as_xyz
  1  'x, y, z'
loop_
 _atom_type_symbol
  Ba
  Pb
loop_
 _atom_site_type_symbol
 _atom_site_label
 _atom_site_symmetry_multiplicity
 _atom_site_fract_x
 _atom_site_fract_y
 _atom_site_fract_z
 _atom_site_occupancy
  Ba  Ba0  1  0.81034261  0.18965739  0.50000000  1
  Ba  Ba1  1  0.61354559  0.38645441  0.00000000  1
  Ba  Ba2  1  0.47220169  0.52779831  0.50000000  1
  Ba  Ba3  1  0.33085060  0.66914940  0.00000000  1
  Ba  Ba4  1  0.13413280  0.86586720  0.50000000  1
  Pb  Pb0  1  0.97226003  0.02773997  0.00000000  1
