# generated using pymatgen
data_4748_AcTh3
_symmetry_space_group_name_H-M   'Pm -3 m'
_cell_length_a   5.16339785
_cell_length_b   5.16339785
_cell_length_c   5.16339785
_cell_angle_alpha   90.00000000
_cell_angle_beta   90.00000000
_cell_angle_gamma   90.00000000
_chemical_formula_structural   AcTh3
_chemical_formula_sum   'Ac1 Th3'
_cell_volume   137.65968415
loop_
 _symmetry_equiv_pos_site_id
 _symmetry_equiv_pos_as_xyz
  1  'x, y, z'
loop_
 _atom_type_symbol
  Ac
  Th
loop_
 _atom_site_type_symbol
 _atom_site_label
 _atom_site_symmetry_multiplicity
 _atom_site_fract_x
 _atom_site_fract_y
 _atom_site_fract_z
 _atom_site_occupancy
  Ac  Ac0  1  0.00000000  0.00000000  0.00000000  1
  Th  Th0  1  0.50000000  0.50000000  0.00000000  1
  Th  Th1  1  0.50000000  0.00000000  0.50000000  1
  Th  Th2  1  0.00000000  0.50000000  0.50000000  1
