# generated using pymatgen
data_4749_K6Rh2
_symmetry_space_group_name_H-M   'I4/mmm'
_cell_length_a   10.45814447
_cell_length_b   10.45814447
_cell_length_c   10.45814447
_cell_angle_alpha   150.23631547
_cell_angle_beta   150.23631547
_cell_angle_gamma   42.59462804
_chemical_formula_structural   K6Rh2
_chemical_formula_sum   'K6 Rh2'
_cell_volume   281.17946026
loop_
 _symmetry_equiv_pos_site_id
 _symmetry_equiv_pos_as_xyz
  1  'x, y, z'
loop_
 _atom_type_symbol
  K
  Rh
loop_
 _atom_site_type_symbol
 _atom_site_label
 _atom_site_symmetry_multiplicity
 _atom_site_fract_x
 _atom_site_fract_y
 _atom_site_fract_z
 _atom_site_occupancy
  K  K0  1  0.50000000  0.00000000  0.50000000  1
  K  K1  1  0.00000000  0.50000000  0.50000000  1
  K  K2  1  0.75000000  0.25000000  0.50000000  1
  K  K3  1  0.25000000  0.75000000  0.50000000  1
  K  K4  1  0.13368969  0.13368969  0.00000000  1
  K  K5  1  0.86631031  0.86631031  0.00000000  1
  Rh  Rh0  1  0.36789516  0.36789516  0.00000000  1
  Rh  Rh1  1  0.63210484  0.63210484  0.00000000  1
