# generated using pymatgen
data_4751_Mn4W2
_symmetry_space_group_name_H-M   'Cmcm'
_cell_length_a   3.05740393
_cell_length_b   6.35477662
_cell_length_c   4.11180558
_cell_angle_alpha   90.00000000
_cell_angle_beta   90.00000000
_cell_angle_gamma   76.08043437
_chemical_formula_structural   Mn4W2
_chemical_formula_sum   'Mn4 W2'
_cell_volume   77.54277782
loop_
 _symmetry_equiv_pos_site_id
 _symmetry_equiv_pos_as_xyz
  1  'x, y, z'
loop_
 _atom_type_symbol
  Mn
  W
loop_
 _atom_site_type_symbol
 _atom_site_label
 _atom_site_symmetry_multiplicity
 _atom_site_fract_x
 _atom_site_fract_y
 _atom_site_fract_z
 _atom_site_occupancy
  Mn  Mn0  1  0.58232745  0.83534509  0.25000000  1
  Mn  Mn1  1  0.41767255  0.16465491  0.75000000  1
  Mn  Mn2  1  0.24667553  0.50664894  0.25000000  1
  Mn  Mn3  1  0.75332447  0.49335106  0.75000000  1
  W  W0  1  0.91051849  0.17896303  0.25000000  1
  W  W1  1  0.08948151  0.82103697  0.75000000  1
