# generated using pymatgen
data_4753_Cu4Ta4
_symmetry_space_group_name_H-M   'P2_13'
_cell_length_a   5.00049113
_cell_length_b   5.00049113
_cell_length_c   5.00049113
_cell_angle_alpha   90.00000000
_cell_angle_beta   90.00000000
_cell_angle_gamma   90.00000000
_chemical_formula_structural   Cu4Ta4
_chemical_formula_sum   'Cu4 Ta4'
_cell_volume   125.03683837
loop_
 _symmetry_equiv_pos_site_id
 _symmetry_equiv_pos_as_xyz
  1  'x, y, z'
loop_
 _atom_type_symbol
  Cu
  Ta
loop_
 _atom_site_type_symbol
 _atom_site_label
 _atom_site_symmetry_multiplicity
 _atom_site_fract_x
 _atom_site_fract_y
 _atom_site_fract_z
 _atom_site_occupancy
  Cu  Cu0  1  0.40163254  0.40163254  0.40163254  1
  Cu  Cu1  1  0.09836746  0.59836746  0.90163254  1
  Cu  Cu2  1  0.59836746  0.90163254  0.09836746  1
  Cu  Cu3  1  0.90163254  0.09836746  0.59836746  1
  Ta  Ta0  1  0.09213436  0.09213436  0.09213436  1
  Ta  Ta1  1  0.40786564  0.90786564  0.59213436  1
  Ta  Ta2  1  0.90786564  0.59213436  0.40786564  1
  Ta  Ta3  1  0.59213436  0.40786564  0.90786564  1
