# generated using pymatgen
data_4755_AuAs3
_symmetry_space_group_name_H-M   'Immm'
_cell_length_a   6.00822613
_cell_length_b   6.00822613
_cell_length_c   6.00822613
_cell_angle_alpha   152.35307616
_cell_angle_beta   129.47712542
_cell_angle_gamma   58.56076778
_chemical_formula_structural   AuAs3
_chemical_formula_sum   'As3 Au1'
_cell_volume   77.15759420
loop_
 _symmetry_equiv_pos_site_id
 _symmetry_equiv_pos_as_xyz
  1  'x, y, z'
loop_
 _atom_type_symbol
  As
  Au
loop_
 _atom_site_type_symbol
 _atom_site_label
 _atom_site_symmetry_multiplicity
 _atom_site_fract_x
 _atom_site_fract_y
 _atom_site_fract_z
 _atom_site_occupancy
  As  As0  1  0.99614010  0.99614010  1.00000000  1
  As  As1  1  0.75000000  0.25000000  0.50000000  1
  As  As2  1  0.50385990  0.50385990  1.00000000  1
  Au  Au0  1  0.25000000  0.75000000  0.50000000  1
