# generated using pymatgen
data_4756_K2Sn2
_symmetry_space_group_name_H-M   'Pmmn'
_cell_length_a   3.67413280
_cell_length_b   5.66605891
_cell_length_c   6.59248156
_cell_angle_alpha   90.00000000
_cell_angle_beta   90.00000000
_cell_angle_gamma   90.00000000
_chemical_formula_structural   K2Sn2
_chemical_formula_sum   'K2 Sn2'
_cell_volume   137.24131128
loop_
 _symmetry_equiv_pos_site_id
 _symmetry_equiv_pos_as_xyz
  1  'x, y, z'
loop_
 _atom_type_symbol
  K
  Sn
loop_
 _atom_site_type_symbol
 _atom_site_label
 _atom_site_symmetry_multiplicity
 _atom_site_fract_x
 _atom_site_fract_y
 _atom_site_fract_z
 _atom_site_occupancy
  K  K0  1  0.00000000  0.00000000  0.02168414  1
  K  K1  1  0.50000000  0.50000000  0.81164919  1
  Sn  Sn0  1  0.50000000  0.00000000  0.49714636  1
  Sn  Sn1  1  0.00000000  0.50000000  0.33618697  1
