# generated using pymatgen
data_4759_Au4Ni8
_symmetry_space_group_name_H-M   'Pnma'
_cell_length_a   5.32060182
_cell_length_b   3.79784036
_cell_length_c   7.93273138
_cell_angle_alpha   90.00000000
_cell_angle_beta   90.00000000
_cell_angle_gamma   90.00000000
_chemical_formula_structural   Au4Ni8
_chemical_formula_sum   'Au4 Ni8'
_cell_volume   160.29508735
loop_
 _symmetry_equiv_pos_site_id
 _symmetry_equiv_pos_as_xyz
  1  'x, y, z'
loop_
 _atom_type_symbol
  Au
  Ni
loop_
 _atom_site_type_symbol
 _atom_site_label
 _atom_site_symmetry_multiplicity
 _atom_site_fract_x
 _atom_site_fract_y
 _atom_site_fract_z
 _atom_site_occupancy
  Au  Au0  1  0.13655718  0.25000000  0.90959132  1
  Au  Au1  1  0.36344282  0.75000000  0.40959132  1
  Au  Au2  1  0.63655718  0.25000000  0.59040868  1
  Au  Au3  1  0.86344282  0.75000000  0.09040868  1
  Ni  Ni0  1  0.11153817  0.25000000  0.25643748  1
  Ni  Ni1  1  0.12318633  0.25000000  0.58003731  1
  Ni  Ni2  1  0.37681367  0.75000000  0.08003731  1
  Ni  Ni3  1  0.38846183  0.75000000  0.75643748  1
  Ni  Ni4  1  0.61153817  0.25000000  0.24356252  1
  Ni  Ni5  1  0.62318633  0.25000000  0.91996269  1
  Ni  Ni6  1  0.87681367  0.75000000  0.41996269  1
  Ni  Ni7  1  0.88846183  0.75000000  0.74356252  1
