# generated using pymatgen
data_4761_Fe4Ga4
_symmetry_space_group_name_H-M   'Pnma'
_cell_length_a   4.15427948
_cell_length_b   4.79501298
_cell_length_c   5.30632482
_cell_angle_alpha   90.00000000
_cell_angle_beta   90.00000000
_cell_angle_gamma   90.00000000
_chemical_formula_structural   Fe4Ga4
_chemical_formula_sum   'Fe4 Ga4'
_cell_volume   105.70105666
loop_
 _symmetry_equiv_pos_site_id
 _symmetry_equiv_pos_as_xyz
  1  'x, y, z'
loop_
 _atom_type_symbol
  Fe
  Ga
loop_
 _atom_site_type_symbol
 _atom_site_label
 _atom_site_symmetry_multiplicity
 _atom_site_fract_x
 _atom_site_fract_y
 _atom_site_fract_z
 _atom_site_occupancy
  Fe  Fe0  1  0.75000000  0.83005749  0.17972617  1
  Fe  Fe1  1  0.25000000  0.33005749  0.32027383  1
  Fe  Fe2  1  0.75000000  0.66994251  0.67972617  1
  Fe  Fe3  1  0.25000000  0.16994251  0.82027383  1
  Ga  Ga0  1  0.75000000  0.32111502  0.04993246  1
  Ga  Ga1  1  0.25000000  0.82111502  0.45006754  1
  Ga  Ga2  1  0.75000000  0.17888498  0.54993246  1
  Ga  Ga3  1  0.25000000  0.67888498  0.95006754  1
