# generated using pymatgen
data_4762_Fe3Sb
_symmetry_space_group_name_H-M   'Imm2'
_cell_length_a   4.88577422
_cell_length_b   4.88577422
_cell_length_c   4.88577422
_cell_angle_alpha   146.53752510
_cell_angle_beta   126.55361826
_cell_angle_gamma   64.54374107
_chemical_formula_structural   Fe3Sb
_chemical_formula_sum   'Fe3 Sb1'
_cell_volume   51.06293787
loop_
 _symmetry_equiv_pos_site_id
 _symmetry_equiv_pos_as_xyz
  1  'x, y, z'
loop_
 _atom_type_symbol
  Fe
  Sb
loop_
 _atom_site_type_symbol
 _atom_site_label
 _atom_site_symmetry_multiplicity
 _atom_site_fract_x
 _atom_site_fract_y
 _atom_site_fract_z
 _atom_site_occupancy
  Fe  Fe0  1  0.76955204  0.75913150  0.01042054  1
  Fe  Fe1  1  0.25128904  0.24086850  0.01042054  1
  Fe  Fe2  1  0.16524324  0.50000000  0.66524324  1
  Sb  Sb0  1  0.64724568  1.00000000  0.64724568  1
