# generated using pymatgen
data_4763_InMo5
_symmetry_space_group_name_H-M   'P4/mmm'
_cell_length_a   3.17899835
_cell_length_b   3.17899835
_cell_length_c   9.98329411
_cell_angle_alpha   90.00000000
_cell_angle_beta   90.00000000
_cell_angle_gamma   90.00000000
_chemical_formula_structural   InMo5
_chemical_formula_sum   'In1 Mo5'
_cell_volume   100.89147486
loop_
 _symmetry_equiv_pos_site_id
 _symmetry_equiv_pos_as_xyz
  1  'x, y, z'
loop_
 _atom_type_symbol
  In
  Mo
loop_
 _atom_site_type_symbol
 _atom_site_label
 _atom_site_symmetry_multiplicity
 _atom_site_fract_x
 _atom_site_fract_y
 _atom_site_fract_z
 _atom_site_occupancy
  In  In0  1  0.50000000  0.50000000  0.00000000  1
  Mo  Mo0  1  0.00000000  0.00000000  0.80679805  1
  Mo  Mo1  1  0.00000000  0.00000000  0.19320195  1
  Mo  Mo2  1  0.50000000  0.50000000  0.65836344  1
  Mo  Mo3  1  0.50000000  0.50000000  0.34163656  1
  Mo  Mo4  1  0.00000000  0.00000000  0.50000000  1
