# generated using pymatgen
data_4764_PtSm
_symmetry_space_group_name_H-M   'F-43m'
_cell_length_a   4.54726441
_cell_length_b   4.54726441
_cell_length_c   4.54726441
_cell_angle_alpha   60.00000000
_cell_angle_beta   60.00000000
_cell_angle_gamma   60.00000000
_chemical_formula_structural   PtSm
_chemical_formula_sum   'Pt1 Sm1'
_cell_volume   66.48682983
loop_
 _symmetry_equiv_pos_site_id
 _symmetry_equiv_pos_as_xyz
  1  'x, y, z'
loop_
 _atom_type_symbol
  Pt
  Sm
loop_
 _atom_site_type_symbol
 _atom_site_label
 _atom_site_symmetry_multiplicity
 _atom_site_fract_x
 _atom_site_fract_y
 _atom_site_fract_z
 _atom_site_occupancy
  Pt  Pt0  1  0.00000000  0.00000000  0.00000000  1
  Sm  Sm0  1  0.25000041  0.25000041  0.25000041  1
