# generated using pymatgen
data_4767_Sn4W8
_symmetry_space_group_name_H-M   'Pnma'
_cell_length_a   4.26939481
_cell_length_b   5.76191382
_cell_length_c   9.06447178
_cell_angle_alpha   90.00000000
_cell_angle_beta   90.00000000
_cell_angle_gamma   90.00000000
_chemical_formula_structural   Sn4W8
_chemical_formula_sum   'Sn4 W8'
_cell_volume   222.98496300
loop_
 _symmetry_equiv_pos_site_id
 _symmetry_equiv_pos_as_xyz
  1  'x, y, z'
loop_
 _atom_type_symbol
  Sn
  W
loop_
 _atom_site_type_symbol
 _atom_site_label
 _atom_site_symmetry_multiplicity
 _atom_site_fract_x
 _atom_site_fract_y
 _atom_site_fract_z
 _atom_site_occupancy
  Sn  Sn0  1  0.25000000  0.63535039  0.39962695  1
  Sn  Sn1  1  0.75000000  0.86464961  0.89962695  1
  Sn  Sn2  1  0.25000000  0.13535039  0.10037305  1
  Sn  Sn3  1  0.75000000  0.36464961  0.60037305  1
  W  W0  1  0.25000000  0.05230368  0.70481110  1
  W  W1  1  0.75000000  0.44769632  0.20481110  1
  W  W2  1  0.25000000  0.55230368  0.79518890  1
  W  W3  1  0.75000000  0.94769632  0.29518890  1
  W  W4  1  0.25000000  0.14161436  0.42138307  1
  W  W5  1  0.75000000  0.35838564  0.92138307  1
  W  W6  1  0.25000000  0.64161436  0.07861693  1
  W  W7  1  0.75000000  0.85838564  0.57861693  1
