# generated using pymatgen
data_4768_Pb6P2
_symmetry_space_group_name_H-M   'I4/mmm'
_cell_length_a   10.45991470
_cell_length_b   10.45991470
_cell_length_c   10.45991470
_cell_angle_alpha   153.71370008
_cell_angle_beta   153.71370008
_cell_angle_gamma   37.51586967
_chemical_formula_structural   Pb6P2
_chemical_formula_sum   'P2 Pb6'
_cell_volume   224.11174349
loop_
 _symmetry_equiv_pos_site_id
 _symmetry_equiv_pos_as_xyz
  1  'x, y, z'
loop_
 _atom_type_symbol
  P
  Pb
loop_
 _atom_site_type_symbol
 _atom_site_label
 _atom_site_symmetry_multiplicity
 _atom_site_fract_x
 _atom_site_fract_y
 _atom_site_fract_z
 _atom_site_occupancy
  P  P0  1  0.61507598  0.61507598  0.00000000  1
  P  P1  1  0.38492402  0.38492402  0.00000000  1
  Pb  Pb0  1  0.50000000  0.00000000  0.50000000  1
  Pb  Pb1  1  0.00000000  0.50000000  0.50000000  1
  Pb  Pb2  1  0.25000000  0.75000000  0.50000000  1
  Pb  Pb3  1  0.75000000  0.25000000  0.50000000  1
  Pb  Pb4  1  0.87334557  0.87334557  0.00000000  1
  Pb  Pb5  1  0.12665443  0.12665443  0.00000000  1
