# generated using pymatgen
data_4770_Cu8Ta4
_symmetry_space_group_name_H-M   'Pa -3'
_cell_length_a   5.95049613
_cell_length_b   5.95049613
_cell_length_c   5.95049613
_cell_angle_alpha   90.00000000
_cell_angle_beta   90.00000000
_cell_angle_gamma   90.00000000
_chemical_formula_structural   Cu8Ta4
_chemical_formula_sum   'Cu8 Ta4'
_cell_volume   210.69757212
loop_
 _symmetry_equiv_pos_site_id
 _symmetry_equiv_pos_as_xyz
  1  'x, y, z'
loop_
 _atom_type_symbol
  Cu
  Ta
loop_
 _atom_site_type_symbol
 _atom_site_label
 _atom_site_symmetry_multiplicity
 _atom_site_fract_x
 _atom_site_fract_y
 _atom_site_fract_z
 _atom_site_occupancy
  Cu  Cu0  1  0.38680719  0.38680719  0.38680719  1
  Cu  Cu1  1  0.61319281  0.61319281  0.61319281  1
  Cu  Cu2  1  0.88680719  0.11319281  0.61319281  1
  Cu  Cu3  1  0.11319281  0.88680719  0.38680719  1
  Cu  Cu4  1  0.61319281  0.88680719  0.11319281  1
  Cu  Cu5  1  0.38680719  0.11319281  0.88680719  1
  Cu  Cu6  1  0.11319281  0.61319281  0.88680719  1
  Cu  Cu7  1  0.88680719  0.38680719  0.11319281  1
  Ta  Ta0  1  0.00000000  0.00000000  0.00000000  1
  Ta  Ta1  1  0.50000000  0.50000000  0.00000000  1
  Ta  Ta2  1  0.50000000  0.00000000  0.50000000  1
  Ta  Ta3  1  0.00000000  0.50000000  0.50000000  1
