# generated using pymatgen
data_4772_Ba4Ta2
_symmetry_space_group_name_H-M   'Cmcm'
_cell_length_a   12.00262863
_cell_length_b   12.00262863
_cell_length_c   4.53281900
_cell_angle_alpha   90.00000000
_cell_angle_beta   90.00000000
_cell_angle_gamma   158.27880074
_chemical_formula_structural   Ba4Ta2
_chemical_formula_sum   'Ba4 Ta2'
_cell_volume   241.67351704
loop_
 _symmetry_equiv_pos_site_id
 _symmetry_equiv_pos_as_xyz
  1  'x, y, z'
loop_
 _atom_type_symbol
  Ba
  Ta
loop_
 _atom_site_type_symbol
 _atom_site_label
 _atom_site_symmetry_multiplicity
 _atom_site_fract_x
 _atom_site_fract_y
 _atom_site_fract_z
 _atom_site_occupancy
  Ba  Ba0  1  0.41735288  0.58264712  0.25000000  1
  Ba  Ba1  1  0.58264712  0.41735288  0.75000000  1
  Ba  Ba2  1  0.69414858  0.30585142  0.25000000  1
  Ba  Ba3  1  0.30585142  0.69414858  0.75000000  1
  Ta  Ta0  1  0.03054619  0.96945381  0.25000000  1
  Ta  Ta1  1  0.96945381  0.03054619  0.75000000  1
