# generated using pymatgen
data_4778_MnRh5
_symmetry_space_group_name_H-M   'Amm2'
_cell_length_a   7.15677384
_cell_length_b   7.15677384
_cell_length_c   4.35206755
_cell_angle_alpha   90.00000000
_cell_angle_beta   90.00000000
_cell_angle_gamma   157.85089765
_chemical_formula_structural   MnRh5
_chemical_formula_sum   'Mn1 Rh5'
_cell_volume   84.04124568
loop_
 _symmetry_equiv_pos_site_id
 _symmetry_equiv_pos_as_xyz
  1  'x, y, z'
loop_
 _atom_type_symbol
  Mn
  Rh
loop_
 _atom_site_type_symbol
 _atom_site_label
 _atom_site_symmetry_multiplicity
 _atom_site_fract_x
 _atom_site_fract_y
 _atom_site_fract_z
 _atom_site_occupancy
  Mn  Mn0  1  0.00004456  0.99995544  0.00000000  1
  Rh  Rh0  1  0.22191010  0.77808990  0.50000000  1
  Rh  Rh1  1  0.33742725  0.66257275  0.00000000  1
  Rh  Rh2  1  0.55290568  0.44709432  0.50000000  1
  Rh  Rh3  1  0.66455440  0.33544560  0.00000000  1
  Rh  Rh4  1  0.88982468  0.11017532  0.50000000  1
