# generated using pymatgen
data_4782_Sr4Br
_symmetry_space_group_name_H-M   'Im -3 m'
_cell_length_a   6.90104776
_cell_length_b   6.90104776
_cell_length_c   6.90104776
_cell_angle_alpha   109.47122063
_cell_angle_beta   109.47122063
_cell_angle_gamma   109.47122063
_chemical_formula_structural   Sr4Br
_chemical_formula_sum   'Br1 Sr4'
_cell_volume   253.00156506
loop_
 _symmetry_equiv_pos_site_id
 _symmetry_equiv_pos_as_xyz
  1  'x, y, z'
loop_
 _atom_type_symbol
  Br
  Sr
loop_
 _atom_site_type_symbol
 _atom_site_label
 _atom_site_symmetry_multiplicity
 _atom_site_fract_x
 _atom_site_fract_y
 _atom_site_fract_z
 _atom_site_occupancy
  Br  Br0  1  0.00000000  0.00000000  0.00000000  1
  Sr  Sr0  1  0.00000000  0.50000000  0.00000000  1
  Sr  Sr1  1  0.50000000  0.50000000  0.50000000  1
  Sr  Sr2  1  0.00000000  0.00000000  0.50000000  1
  Sr  Sr3  1  0.50000000  0.00000000  0.00000000  1
