# generated using pymatgen
data_4783_Ag24Al5
_symmetry_space_group_name_H-M   'I-43m'
_cell_length_a   8.79398417
_cell_length_b   8.79398417
_cell_length_c   8.79398417
_cell_angle_alpha   109.47122063
_cell_angle_beta   109.47122063
_cell_angle_gamma   109.47122063
_chemical_formula_structural   Ag24Al5
_chemical_formula_sum   'Ag24 Al5'
_cell_volume   523.52225504
loop_
 _symmetry_equiv_pos_site_id
 _symmetry_equiv_pos_as_xyz
  1  'x, y, z'
loop_
 _atom_type_symbol
  Ag
  Al
loop_
 _atom_site_type_symbol
 _atom_site_label
 _atom_site_symmetry_multiplicity
 _atom_site_fract_x
 _atom_site_fract_y
 _atom_site_fract_z
 _atom_site_occupancy
  Ag  Ag0  1  0.19176101  0.37963307  0.00000000  1
  Ag  Ag1  1  0.37963307  0.19176101  0.00000000  1
  Ag  Ag2  1  0.80823899  0.80823899  0.18787207  1
  Ag  Ag3  1  0.62036693  0.62036693  0.81212793  1
  Ag  Ag4  1  0.80823899  0.18787207  0.80823899  1
  Ag  Ag5  1  0.62036693  0.81212793  0.62036693  1
  Ag  Ag6  1  0.37963307  0.00000000  0.19176101  1
  Ag  Ag7  1  0.19176101  0.00000000  0.37963307  1
  Ag  Ag8  1  0.00000000  0.37963307  0.19176101  1
  Ag  Ag9  1  0.00000000  0.19176101  0.37963307  1
  Ag  Ag10  1  0.81212793  0.62036693  0.62036693  1
  Ag  Ag11  1  0.18787207  0.80823899  0.80823899  1
  Ag  Ag12  1  0.69669080  0.42104470  0.00000000  1
  Ag  Ag13  1  0.42104470  0.69669080  0.00000000  1
  Ag  Ag14  1  0.30330920  0.30330920  0.72435391  1
  Ag  Ag15  1  0.57895530  0.57895530  0.27564609  1
  Ag  Ag16  1  0.30330920  0.72435391  0.30330920  1
  Ag  Ag17  1  0.57895530  0.27564609  0.57895530  1
  Ag  Ag18  1  0.42104470  0.00000000  0.69669080  1
  Ag  Ag19  1  0.69669080  0.00000000  0.42104470  1
  Ag  Ag20  1  1.00000000  0.42104470  0.69669080  1
  Ag  Ag21  1  1.00000000  0.69669080  0.42104470  1
  Ag  Ag22  1  0.27564609  0.57895530  0.57895530  1
  Ag  Ag23  1  0.72435391  0.30330920  0.30330920  1
  Al  Al0  1  0.00000000  0.65518726  0.00000000  1
  Al  Al1  1  0.65518726  0.00000000  0.00000000  1
  Al  Al2  1  0.00000000  0.00000000  0.65518726  1
  Al  Al3  1  0.34481274  0.34481274  0.34481274  1
  Al  Al4  1  0.00000000  0.00000000  0.00000000  1
