# generated using pymatgen
data_4784_Ni4Rh2
_symmetry_space_group_name_H-M   'C2/m'
_cell_length_a   2.63340847
_cell_length_b   6.22643134
_cell_length_c   4.84023966
_cell_angle_alpha   73.85702419
_cell_angle_beta   105.78526966
_cell_angle_gamma   90.00000000
_chemical_formula_structural   Ni4Rh2
_chemical_formula_sum   'Ni4 Rh2'
_cell_volume   73.11390847
loop_
 _symmetry_equiv_pos_site_id
 _symmetry_equiv_pos_as_xyz
  1  'x, y, z'
loop_
 _atom_type_symbol
  Ni
  Rh
loop_
 _atom_site_type_symbol
 _atom_site_label
 _atom_site_symmetry_multiplicity
 _atom_site_fract_x
 _atom_site_fract_y
 _atom_site_fract_z
 _atom_site_occupancy
  Ni  Ni0  1  0.03242359  0.97494031  0.06484719  1
  Ni  Ni1  1  0.64356517  0.22219405  0.28713035  1
  Ni  Ni2  1  0.35643483  0.27780595  0.71286965  1
  Ni  Ni3  1  0.96757641  0.52505969  0.93515281  1
  Rh  Rh0  1  0.67935826  0.61846603  0.35871652  1
  Rh  Rh1  1  0.32064174  0.88153397  0.64128348  1
