# generated using pymatgen
data_4787_Cu2Ni2
_symmetry_space_group_name_H-M   'Cmcm'
_cell_length_a   2.48652237
_cell_length_b   4.84814793
_cell_length_c   3.98369748
_cell_angle_alpha   90.00000000
_cell_angle_beta   90.00000000
_cell_angle_gamma   104.85895479
_chemical_formula_structural   Cu2Ni2
_chemical_formula_sum   'Cu2 Ni2'
_cell_volume   46.41767873
loop_
 _symmetry_equiv_pos_site_id
 _symmetry_equiv_pos_as_xyz
  1  'x, y, z'
loop_
 _atom_type_symbol
  Cu
  Ni
loop_
 _atom_site_type_symbol
 _atom_site_label
 _atom_site_symmetry_multiplicity
 _atom_site_fract_x
 _atom_site_fract_y
 _atom_site_fract_z
 _atom_site_occupancy
  Cu  Cu0  1  0.17510208  0.35020415  0.25000000  1
  Cu  Cu1  1  0.82489792  0.64979585  0.75000000  1
  Ni  Ni0  1  0.43377423  0.86754846  0.25000000  1
  Ni  Ni1  1  0.56622577  0.13245154  0.75000000  1
