# generated using pymatgen
data_4788_Mo2Pb2
_symmetry_space_group_name_H-M   'Cmme'
_cell_length_a   3.07774712
_cell_length_b   3.07774712
_cell_length_c   10.64634714
_cell_angle_alpha   90.00000000
_cell_angle_beta   90.00000000
_cell_angle_gamma   112.86128087
_chemical_formula_structural   Mo2Pb2
_chemical_formula_sum   'Mo2 Pb2'
_cell_volume   92.92603222
loop_
 _symmetry_equiv_pos_site_id
 _symmetry_equiv_pos_as_xyz
  1  'x, y, z'
loop_
 _atom_type_symbol
  Mo
  Pb
loop_
 _atom_site_type_symbol
 _atom_site_label
 _atom_site_symmetry_multiplicity
 _atom_site_fract_x
 _atom_site_fract_y
 _atom_site_fract_z
 _atom_site_occupancy
  Mo  Mo0  1  0.00000000  0.00000000  0.96244585  1
  Mo  Mo1  1  0.50000000  0.50000000  0.78755415  1
  Pb  Pb0  1  0.00000000  0.00000000  0.54555178  1
  Pb  Pb1  1  0.50000000  0.50000000  0.20444822  1
