# generated using pymatgen
data_4789_Na2Pb
_symmetry_space_group_name_H-M   'Immm'
_cell_length_a   6.15761605
_cell_length_b   6.15761605
_cell_length_c   6.15761605
_cell_angle_alpha   143.60556516
_cell_angle_beta   140.19523657
_cell_angle_gamma   55.02760273
_chemical_formula_structural   Na2Pb
_chemical_formula_sum   'Na2 Pb1'
_cell_volume   88.05255671
loop_
 _symmetry_equiv_pos_site_id
 _symmetry_equiv_pos_as_xyz
  1  'x, y, z'
loop_
 _atom_type_symbol
  Na
  Pb
loop_
 _atom_site_type_symbol
 _atom_site_label
 _atom_site_symmetry_multiplicity
 _atom_site_fract_x
 _atom_site_fract_y
 _atom_site_fract_z
 _atom_site_occupancy
  Na  Na0  1  0.66128253  0.66128253  1.00000000  1
  Na  Na1  1  0.33871747  0.33871747  1.00000000  1
  Pb  Pb0  1  0.00000000  0.00000000  0.00000000  1
