# generated using pymatgen
data_4790_Ba5W
_symmetry_space_group_name_H-M   'Amm2'
_cell_length_a   11.09514443
_cell_length_b   11.09514443
_cell_length_c   6.35550148
_cell_angle_alpha   90.00000000
_cell_angle_beta   90.00000000
_cell_angle_gamma   158.60930383
_chemical_formula_structural   Ba5W
_chemical_formula_sum   'Ba5 W1'
_cell_volume   285.35269731
loop_
 _symmetry_equiv_pos_site_id
 _symmetry_equiv_pos_as_xyz
  1  'x, y, z'
loop_
 _atom_type_symbol
  Ba
  W
loop_
 _atom_site_type_symbol
 _atom_site_label
 _atom_site_symmetry_multiplicity
 _atom_site_fract_x
 _atom_site_fract_y
 _atom_site_fract_z
 _atom_site_occupancy
  Ba  Ba0  1  0.01781177  0.98218823  0.00000000  1
  Ba  Ba1  1  0.34048377  0.65951623  0.00000000  1
  Ba  Ba2  1  0.65316828  0.34683172  0.00000000  1
  Ba  Ba3  1  0.48499221  0.51500779  0.50000000  1
  Ba  Ba4  1  0.73007300  0.26992700  0.50000000  1
  W  W0  1  0.10680431  0.89319569  0.50000000  1
