# generated using pymatgen
data_4791_NaP3
_symmetry_space_group_name_H-M   'Immm'
_cell_length_a   5.32713214
_cell_length_b   5.32713214
_cell_length_c   5.32713214
_cell_angle_alpha   145.76914901
_cell_angle_beta   120.76595905
_cell_angle_gamma   70.22604163
_chemical_formula_structural   NaP3
_chemical_formula_sum   'Na1 P3'
_cell_volume   71.94381199
loop_
 _symmetry_equiv_pos_site_id
 _symmetry_equiv_pos_as_xyz
  1  'x, y, z'
loop_
 _atom_type_symbol
  Na
  P
loop_
 _atom_site_type_symbol
 _atom_site_label
 _atom_site_symmetry_multiplicity
 _atom_site_fract_x
 _atom_site_fract_y
 _atom_site_fract_z
 _atom_site_occupancy
  Na  Na0  1  0.00000000  0.00000000  0.00000000  1
  P  P0  1  0.69101758  0.19101758  0.50000000  1
  P  P1  1  0.50000000  0.50000000  1.00000000  1
  P  P2  1  0.30898242  0.80898242  0.50000000  1
