# generated using pymatgen
data_4796_Ni3P
_symmetry_space_group_name_H-M   'Pmmm'
_cell_length_a   2.63691467
_cell_length_b   3.36009958
_cell_length_c   4.89250806
_cell_angle_alpha   90.00000000
_cell_angle_beta   90.00000000
_cell_angle_gamma   90.00000000
_chemical_formula_structural   Ni3P
_chemical_formula_sum   'Ni3 P1'
_cell_volume   43.34906898
loop_
 _symmetry_equiv_pos_site_id
 _symmetry_equiv_pos_as_xyz
  1  'x, y, z'
loop_
 _atom_type_symbol
  Ni
  P
loop_
 _atom_site_type_symbol
 _atom_site_label
 _atom_site_symmetry_multiplicity
 _atom_site_fract_x
 _atom_site_fract_y
 _atom_site_fract_z
 _atom_site_occupancy
  Ni  Ni0  1  0.50000000  0.50000000  0.75550396  1
  Ni  Ni1  1  0.00000000  0.00000000  0.50000000  1
  Ni  Ni2  1  0.50000000  0.50000000  0.24449604  1
  P  P0  1  0.00000000  0.00000000  0.00000000  1
