# generated using pymatgen
data_4797_Pt3V
_symmetry_space_group_name_H-M   'Pm -3 m'
_cell_length_a   3.92077114
_cell_length_b   3.92077114
_cell_length_c   3.92077114
_cell_angle_alpha   90.00000000
_cell_angle_beta   90.00000000
_cell_angle_gamma   90.00000000
_chemical_formula_structural   Pt3V
_chemical_formula_sum   'Pt3 V1'
_cell_volume   60.27184393
loop_
 _symmetry_equiv_pos_site_id
 _symmetry_equiv_pos_as_xyz
  1  'x, y, z'
loop_
 _atom_type_symbol
  Pt
  V
loop_
 _atom_site_type_symbol
 _atom_site_label
 _atom_site_symmetry_multiplicity
 _atom_site_fract_x
 _atom_site_fract_y
 _atom_site_fract_z
 _atom_site_occupancy
  Pt  Pt0  1  0.00000000  0.00000000  0.00000000  1
  Pt  Pt1  1  0.00000000  0.50000000  0.50000000  1
  Pt  Pt2  1  0.50000000  0.00000000  0.50000000  1
  V  V0  1  0.50000000  0.50000000  0.00000000  1
