# generated using pymatgen
data_4799_Ba3In3
_symmetry_space_group_name_H-M   'Cm'
_cell_length_a   7.24273109
_cell_length_b   7.24273109
_cell_length_c   8.22258519
_cell_angle_alpha   69.70687564
_cell_angle_beta   69.70687564
_cell_angle_gamma   34.87929157
_chemical_formula_structural   Ba3In3
_chemical_formula_sum   'Ba3 In3'
_cell_volume   229.78170399
loop_
 _symmetry_equiv_pos_site_id
 _symmetry_equiv_pos_as_xyz
  1  'x, y, z'
loop_
 _atom_type_symbol
  Ba
  In
loop_
 _atom_site_type_symbol
 _atom_site_label
 _atom_site_symmetry_multiplicity
 _atom_site_fract_x
 _atom_site_fract_y
 _atom_site_fract_z
 _atom_site_occupancy
  Ba  Ba0  1  0.93634513  0.93634513  0.06312073  1
  Ba  Ba1  1  0.64552251  0.64552251  0.68708051  1
  Ba  Ba2  1  0.64993253  0.64993253  0.22806968  1
  In  In0  1  0.34921516  0.34921516  0.42458934  1
  In  In1  1  0.95070330  0.95070330  0.58628350  1
  In  In2  1  0.30161470  0.30161470  0.84418958  1
