# generated using pymatgen
data_479_Ca18Mo6
_symmetry_space_group_name_H-M   'Pmmn'
_cell_length_a   5.53411203
_cell_length_b   7.80815819
_cell_length_c   16.60250998
_cell_angle_alpha   90.00000000
_cell_angle_beta   90.00000000
_cell_angle_gamma   90.00000000
_chemical_formula_structural   Ca18Mo6
_chemical_formula_sum   'Ca18 Mo6'
_cell_volume   717.41474735
loop_
 _symmetry_equiv_pos_site_id
 _symmetry_equiv_pos_as_xyz
  1  'x, y, z'
loop_
 _atom_type_symbol
  Ca
  Mo
loop_
 _atom_site_type_symbol
 _atom_site_label
 _atom_site_symmetry_multiplicity
 _atom_site_fract_x
 _atom_site_fract_y
 _atom_site_fract_z
 _atom_site_occupancy
  Ca  Ca0  1  0.24685138  0.00097481  0.41745000  1
  Ca  Ca1  1  0.24685138  0.00097481  0.08255000  1
  Ca  Ca2  1  0.26479021  0.99802166  0.75000000  1
  Ca  Ca3  1  0.73520979  0.00197834  0.25000000  1
  Ca  Ca4  1  0.75314862  0.99902519  0.91745000  1
  Ca  Ca5  1  0.75314862  0.99902519  0.58255000  1
  Ca  Ca6  1  0.23175926  0.25000000  0.25000000  1
  Ca  Ca7  1  0.25216941  0.25000000  0.91467182  1
  Ca  Ca8  1  0.25216941  0.25000000  0.58532818  1
  Ca  Ca9  1  0.24685138  0.49902519  0.41745000  1
  Ca  Ca10  1  0.24685138  0.49902519  0.08255000  1
  Ca  Ca11  1  0.26479021  0.50197834  0.75000000  1
  Ca  Ca12  1  0.73520979  0.49802166  0.25000000  1
  Ca  Ca13  1  0.75314862  0.50097481  0.91745000  1
  Ca  Ca14  1  0.75314862  0.50097481  0.58255000  1
  Ca  Ca15  1  0.76824074  0.75000000  0.75000000  1
  Ca  Ca16  1  0.74783059  0.75000000  0.41467182  1
  Ca  Ca17  1  0.74783059  0.75000000  0.08532818  1
  Mo  Mo0  1  0.76262794  0.25000000  0.75000000  1
  Mo  Mo1  1  0.74511432  0.25000000  0.41617094  1
  Mo  Mo2  1  0.74511432  0.25000000  0.08382906  1
  Mo  Mo3  1  0.23737206  0.75000000  0.25000000  1
  Mo  Mo4  1  0.25488568  0.75000000  0.91617094  1
  Mo  Mo5  1  0.25488568  0.75000000  0.58382906  1
