# generated using pymatgen
data_4802_K4Pd2
_symmetry_space_group_name_H-M   'Pnnm'
_cell_length_a   7.12569206
_cell_length_b   7.61220311
_cell_length_c   5.12456671
_cell_angle_alpha   90.00000000
_cell_angle_beta   90.00000000
_cell_angle_gamma   90.00000000
_chemical_formula_structural   K4Pd2
_chemical_formula_sum   'K4 Pd2'
_cell_volume   277.96785060
loop_
 _symmetry_equiv_pos_site_id
 _symmetry_equiv_pos_as_xyz
  1  'x, y, z'
loop_
 _atom_type_symbol
  K
  Pd
loop_
 _atom_site_type_symbol
 _atom_site_label
 _atom_site_symmetry_multiplicity
 _atom_site_fract_x
 _atom_site_fract_y
 _atom_site_fract_z
 _atom_site_occupancy
  K  K0  1  0.27132654  0.34003277  0.00000000  1
  K  K1  1  0.22867346  0.84003277  0.50000000  1
  K  K2  1  0.77132654  0.15996723  0.50000000  1
  K  K3  1  0.72867346  0.65996723  0.00000000  1
  Pd  Pd0  1  0.00000000  0.00000000  0.00000000  1
  Pd  Pd1  1  0.50000000  0.50000000  0.50000000  1
