# generated using pymatgen
data_4803_Mo5W
_symmetry_space_group_name_H-M   'Cmmm'
_cell_length_a   5.25951050
_cell_length_b   5.25951050
_cell_length_c   4.48325881
_cell_angle_alpha   90.00000000
_cell_angle_beta   90.00000000
_cell_angle_gamma   129.67821239
_chemical_formula_structural   Mo5W
_chemical_formula_sum   'Mo5 W1'
_cell_volume   95.44945415
loop_
 _symmetry_equiv_pos_site_id
 _symmetry_equiv_pos_as_xyz
  1  'x, y, z'
loop_
 _atom_type_symbol
  Mo
  W
loop_
 _atom_site_type_symbol
 _atom_site_label
 _atom_site_symmetry_multiplicity
 _atom_site_fract_x
 _atom_site_fract_y
 _atom_site_fract_z
 _atom_site_occupancy
  Mo  Mo0  1  0.80591919  0.19408081  0.50000000  1
  Mo  Mo1  1  0.63906327  0.36093673  0.00000000  1
  Mo  Mo2  1  0.47238419  0.52761581  0.50000000  1
  Mo  Mo3  1  0.30509763  0.69490237  0.00000000  1
  Mo  Mo4  1  0.13881114  0.86118886  0.50000000  1
  W  W0  1  0.97205791  0.02794209  0.00000000  1
