# generated using pymatgen
data_4808_Nb5Br3
_symmetry_space_group_name_H-M   'Cmmm'
_cell_length_a   5.64584261
_cell_length_b   5.64584261
_cell_length_c   4.98164383
_cell_angle_alpha   90.00000000
_cell_angle_beta   90.00000000
_cell_angle_gamma   113.98696013
_chemical_formula_structural   Nb5Br3
_chemical_formula_sum   'Br3 Nb5'
_cell_volume   145.07893685
loop_
 _symmetry_equiv_pos_site_id
 _symmetry_equiv_pos_as_xyz
  1  'x, y, z'
loop_
 _atom_type_symbol
  Br
  Nb
loop_
 _atom_site_type_symbol
 _atom_site_label
 _atom_site_symmetry_multiplicity
 _atom_site_fract_x
 _atom_site_fract_y
 _atom_site_fract_z
 _atom_site_occupancy
  Br  Br0  1  0.50000000  0.50000000  0.00000000  1
  Br  Br1  1  0.75135447  0.24864553  0.50000000  1
  Br  Br2  1  0.24864553  0.75135447  0.50000000  1
  Nb  Nb0  1  0.00000000  0.00000000  0.00000000  1
  Nb  Nb1  1  0.00000000  0.50000000  0.00000000  1
  Nb  Nb2  1  0.50000000  1.00000000  0.00000000  1
  Nb  Nb3  1  0.24964520  0.24964520  0.50000000  1
  Nb  Nb4  1  0.75035480  0.75035480  0.50000000  1
