# generated using pymatgen
data_4809_Mn6W2
_symmetry_space_group_name_H-M   'Pmmn'
_cell_length_a   5.00674121
_cell_length_b   4.30952856
_cell_length_c   4.65153136
_cell_angle_alpha   90.00000000
_cell_angle_beta   90.00000000
_cell_angle_gamma   90.00000000
_chemical_formula_structural   Mn6W2
_chemical_formula_sum   'Mn6 W2'
_cell_volume   100.36466989
loop_
 _symmetry_equiv_pos_site_id
 _symmetry_equiv_pos_as_xyz
  1  'x, y, z'
loop_
 _atom_type_symbol
  Mn
  W
loop_
 _atom_site_type_symbol
 _atom_site_label
 _atom_site_symmetry_multiplicity
 _atom_site_fract_x
 _atom_site_fract_y
 _atom_site_fract_z
 _atom_site_occupancy
  Mn  Mn0  1  0.00000000  0.50000000  0.32262708  1
  Mn  Mn1  1  0.25258173  0.00000000  0.14734629  1
  Mn  Mn2  1  0.24741827  0.50000000  0.85265371  1
  Mn  Mn3  1  0.50000000  0.00000000  0.67737292  1
  Mn  Mn4  1  0.74741827  0.00000000  0.14734629  1
  Mn  Mn5  1  0.75258173  0.50000000  0.85265371  1
  W  W0  1  0.00000000  0.00000000  0.63517343  1
  W  W1  1  0.50000000  0.50000000  0.36482657  1
