# generated using pymatgen
data_4812_Ba3W
_symmetry_space_group_name_H-M   'Pmm2'
_cell_length_a   3.55246197
_cell_length_b   5.56310669
_cell_length_c   7.54800797
_cell_angle_alpha   90.00000000
_cell_angle_beta   90.00000000
_cell_angle_gamma   90.00000000
_chemical_formula_structural   Ba3W
_chemical_formula_sum   'Ba3 W1'
_cell_volume   149.16920544
loop_
 _symmetry_equiv_pos_site_id
 _symmetry_equiv_pos_as_xyz
  1  'x, y, z'
loop_
 _atom_type_symbol
  Ba
  W
loop_
 _atom_site_type_symbol
 _atom_site_label
 _atom_site_symmetry_multiplicity
 _atom_site_fract_x
 _atom_site_fract_y
 _atom_site_fract_z
 _atom_site_occupancy
  Ba  Ba0  1  0.00000000  0.00000000  0.08121037  1
  Ba  Ba1  1  0.50000000  0.00000000  0.50237232  1
  Ba  Ba2  1  0.50000000  0.50000000  0.82737907  1
  W  W0  1  0.00000000  0.50000000  0.25570491  1
