# generated using pymatgen
data_4817_AgNb3
_symmetry_space_group_name_H-M   'Pmm2'
_cell_length_a   2.67517671
_cell_length_b   4.94925661
_cell_length_c   5.47013868
_cell_angle_alpha   90.00000000
_cell_angle_beta   90.00000000
_cell_angle_gamma   90.00000000
_chemical_formula_structural   AgNb3
_chemical_formula_sum   'Ag1 Nb3'
_cell_volume   72.42538014
loop_
 _symmetry_equiv_pos_site_id
 _symmetry_equiv_pos_as_xyz
  1  'x, y, z'
loop_
 _atom_type_symbol
  Ag
  Nb
loop_
 _atom_site_type_symbol
 _atom_site_label
 _atom_site_symmetry_multiplicity
 _atom_site_fract_x
 _atom_site_fract_y
 _atom_site_fract_z
 _atom_site_occupancy
  Ag  Ag0  1  0.00000000  0.00000000  0.01460146  1
  Nb  Nb0  1  0.00000000  0.50000000  0.32233549  1
  Nb  Nb1  1  0.50000000  0.00000000  0.51946732  1
  Nb  Nb2  1  0.50000000  0.50000000  0.81026239  1
