# generated using pymatgen
data_4822_Al6Br2
_symmetry_space_group_name_H-M   'Cmcm'
_cell_length_a   10.54740784
_cell_length_b   10.54740784
_cell_length_c   4.30540694
_cell_angle_alpha   90.00000000
_cell_angle_beta   90.00000000
_cell_angle_gamma   147.43689213
_chemical_formula_structural   Al6Br2
_chemical_formula_sum   'Al6 Br2'
_cell_volume   257.79361447
loop_
 _symmetry_equiv_pos_site_id
 _symmetry_equiv_pos_as_xyz
  1  'x, y, z'
loop_
 _atom_type_symbol
  Al
  Br
loop_
 _atom_site_type_symbol
 _atom_site_label
 _atom_site_symmetry_multiplicity
 _atom_site_fract_x
 _atom_site_fract_y
 _atom_site_fract_z
 _atom_site_occupancy
  Al  Al0  1  0.80505283  0.19494717  0.75000000  1
  Al  Al1  1  0.19494717  0.80505283  0.25000000  1
  Al  Al2  1  0.93466106  0.54733002  0.75000000  1
  Al  Al3  1  0.06533894  0.45266998  0.25000000  1
  Al  Al4  1  0.45266998  0.06533894  0.75000000  1
  Al  Al5  1  0.54733002  0.93466106  0.25000000  1
  Br  Br0  1  0.41090343  0.58909657  0.25000000  1
  Br  Br1  1  0.58909657  0.41090343  0.75000000  1
