# generated using pymatgen
data_4831_Al4V2
_symmetry_space_group_name_H-M   'I4_1/amd'
_cell_length_a   9.18450485
_cell_length_b   9.18450485
_cell_length_c   9.18450485
_cell_angle_alpha   159.50267318
_cell_angle_beta   159.50267318
_cell_angle_gamma   29.14652132
_chemical_formula_structural   Al4V2
_chemical_formula_sum   'Al4 V2'
_cell_volume   94.94612714
loop_
 _symmetry_equiv_pos_site_id
 _symmetry_equiv_pos_as_xyz
  1  'x, y, z'
loop_
 _atom_type_symbol
  Al
  V
loop_
 _atom_site_type_symbol
 _atom_site_label
 _atom_site_symmetry_multiplicity
 _atom_site_fract_x
 _atom_site_fract_y
 _atom_site_fract_z
 _atom_site_occupancy
  Al  Al0  1  0.57052246  0.57052246  0.00000000  1
  Al  Al1  1  0.67947754  0.17947754  0.50000000  1
  Al  Al2  1  0.42947754  0.42947754  0.00000000  1
  Al  Al3  1  0.82052246  0.32052246  0.50000000  1
  V  V0  1  0.00000000  0.00000000  0.00000000  1
  V  V1  1  0.25000000  0.75000000  0.50000000  1
