# generated using pymatgen
data_4832_Pt2Sb2
_symmetry_space_group_name_H-M   'Imma'
_cell_length_a   5.81891662
_cell_length_b   5.81891662
_cell_length_c   5.81891662
_cell_angle_alpha   147.66537266
_cell_angle_beta   129.55035592
_cell_angle_gamma   61.20384445
_chemical_formula_structural   Pt2Sb2
_chemical_formula_sum   'Pt2 Sb2'
_cell_volume   80.49549790
loop_
 _symmetry_equiv_pos_site_id
 _symmetry_equiv_pos_as_xyz
  1  'x, y, z'
loop_
 _atom_type_symbol
  Pt
  Sb
loop_
 _atom_site_type_symbol
 _atom_site_label
 _atom_site_symmetry_multiplicity
 _atom_site_fract_x
 _atom_site_fract_y
 _atom_site_fract_z
 _atom_site_occupancy
  Pt  Pt0  1  0.99322838  0.99322838  0.00000000  1
  Pt  Pt1  1  0.75677162  0.25677162  0.50000000  1
  Sb  Sb0  1  0.52142022  0.52142022  1.00000000  1
  Sb  Sb1  1  0.22857978  0.72857978  0.50000000  1
