# generated using pymatgen
data_4833_Mn2Nb
_symmetry_space_group_name_H-M   'I4/mmm'
_cell_length_a   4.92971278
_cell_length_b   4.92971278
_cell_length_c   4.92971278
_cell_angle_alpha   144.56866608
_cell_angle_beta   144.43052794
_cell_angle_gamma   51.08095681
_chemical_formula_structural   Mn2Nb
_chemical_formula_sum   'Mn2 Nb1'
_cell_volume   40.18718585
loop_
 _symmetry_equiv_pos_site_id
 _symmetry_equiv_pos_as_xyz
  1  'x, y, z'
loop_
 _atom_type_symbol
  Mn
  Nb
loop_
 _atom_site_type_symbol
 _atom_site_label
 _atom_site_symmetry_multiplicity
 _atom_site_fract_x
 _atom_site_fract_y
 _atom_site_fract_z
 _atom_site_occupancy
  Mn  Mn0  1  0.67278988  0.67278988  1.00000000  1
  Mn  Mn1  1  0.32721012  0.32721012  1.00000000  1
  Nb  Nb0  1  0.00000000  0.00000000  0.00000000  1
