# generated using pymatgen
data_4834_In3V
_symmetry_space_group_name_H-M   'I4/mmm'
_cell_length_a   5.54544925
_cell_length_b   5.54544925
_cell_length_c   5.54544925
_cell_angle_alpha   134.28179479
_cell_angle_beta   134.28179479
_cell_angle_gamma   66.64819997
_chemical_formula_structural   In3V
_chemical_formula_sum   'In3 V1'
_cell_volume   86.01279655
loop_
 _symmetry_equiv_pos_site_id
 _symmetry_equiv_pos_as_xyz
  1  'x, y, z'
loop_
 _atom_type_symbol
  In
  V
loop_
 _atom_site_type_symbol
 _atom_site_label
 _atom_site_symmetry_multiplicity
 _atom_site_fract_x
 _atom_site_fract_y
 _atom_site_fract_z
 _atom_site_occupancy
  In  In0  1  0.50000000  0.50000000  0.00000000  1
  In  In1  1  0.75000000  0.25000000  0.50000000  1
  In  In2  1  0.25000000  0.75000000  0.50000000  1
  V  V0  1  0.00000000  0.00000000  0.00000000  1
