# generated using pymatgen
data_4839_Fe2Sb6
_symmetry_space_group_name_H-M   'P6_3/mmc'
_cell_length_a   7.70142880
_cell_length_b   7.70142958
_cell_length_c   3.64154955
_cell_angle_alpha   90.00000000
_cell_angle_beta   90.00000000
_cell_angle_gamma   119.99999664
_chemical_formula_structural   Fe2Sb6
_chemical_formula_sum   'Fe2 Sb6'
_cell_volume   187.05078005
loop_
 _symmetry_equiv_pos_site_id
 _symmetry_equiv_pos_as_xyz
  1  'x, y, z'
loop_
 _atom_type_symbol
  Fe
  Sb
loop_
 _atom_site_type_symbol
 _atom_site_label
 _atom_site_symmetry_multiplicity
 _atom_site_fract_x
 _atom_site_fract_y
 _atom_site_fract_z
 _atom_site_occupancy
  Fe  Fe0  1  0.66666700  0.33333300  0.25000000  1
  Fe  Fe1  1  0.33333300  0.66666700  0.75000000  1
  Sb  Sb0  1  0.19075498  0.38150995  0.25000000  1
  Sb  Sb1  1  0.19075498  0.80924502  0.25000000  1
  Sb  Sb2  1  0.61849005  0.80924502  0.25000000  1
  Sb  Sb3  1  0.38150995  0.19075498  0.75000000  1
  Sb  Sb4  1  0.80924502  0.19075498  0.75000000  1
  Sb  Sb5  1  0.80924502  0.61849005  0.75000000  1
