# generated using pymatgen
data_4840_Al4Pd4
_symmetry_space_group_name_H-M   'Pnma'
_cell_length_a   4.26958447
_cell_length_b   5.29755954
_cell_length_c   5.38875236
_cell_angle_alpha   90.00000000
_cell_angle_beta   90.00000000
_cell_angle_gamma   90.00000000
_chemical_formula_structural   Al4Pd4
_chemical_formula_sum   'Al4 Pd4'
_cell_volume   121.88483751
loop_
 _symmetry_equiv_pos_site_id
 _symmetry_equiv_pos_as_xyz
  1  'x, y, z'
loop_
 _atom_type_symbol
  Al
  Pd
loop_
 _atom_site_type_symbol
 _atom_site_label
 _atom_site_symmetry_multiplicity
 _atom_site_fract_x
 _atom_site_fract_y
 _atom_site_fract_z
 _atom_site_occupancy
  Al  Al0  1  0.75000000  0.86338816  0.15553989  1
  Al  Al1  1  0.25000000  0.36338816  0.34446011  1
  Al  Al2  1  0.75000000  0.63661184  0.65553989  1
  Al  Al3  1  0.25000000  0.13661184  0.84446011  1
  Pd  Pd0  1  0.75000000  0.33519316  0.05892160  1
  Pd  Pd1  1  0.25000000  0.83519316  0.44107840  1
  Pd  Pd2  1  0.75000000  0.16480684  0.55892160  1
  Pd  Pd3  1  0.25000000  0.66480684  0.94107840  1
