# generated using pymatgen
data_4847_Nb10Ni6
_symmetry_space_group_name_H-M   'I4/mcm'
_cell_length_a   7.52222274
_cell_length_b   7.52222431
_cell_length_c   7.52268887
_cell_angle_alpha   96.09785845
_cell_angle_beta   96.09789404
_cell_angle_gamma   141.95646917
_chemical_formula_structural   Nb10Ni6
_chemical_formula_sum   'Nb10 Ni6'
_cell_volume   247.99529844
loop_
 _symmetry_equiv_pos_site_id
 _symmetry_equiv_pos_as_xyz
  1  'x, y, z'
loop_
 _atom_type_symbol
  Nb
  Ni
loop_
 _atom_site_type_symbol
 _atom_site_label
 _atom_site_symmetry_multiplicity
 _atom_site_fract_x
 _atom_site_fract_y
 _atom_site_fract_z
 _atom_site_occupancy
  Nb  Nb0  1  0.75059013  0.25058974  0.50059463  1
  Nb  Nb1  1  0.25058518  0.75058474  0.50059202  1
  Nb  Nb2  1  0.21585077  0.08179172  0.29722010  1
  Nb  Nb3  1  0.78482468  0.91885993  0.70326098  1
  Nb  Nb4  1  0.28485589  0.58190199  0.86641417  1
  Nb  Nb5  1  0.71589033  0.41892820  0.13448089  1
  Nb  Nb6  1  0.41886000  0.28482508  0.70326096  1
  Nb  Nb7  1  0.58179169  0.71585110  0.29722007  1
  Nb  Nb8  1  0.91892864  0.21589063  0.13448122  1
  Nb  Nb9  1  0.08190207  0.78485587  0.86641431  1
  Ni  Ni0  1  0.25033312  0.25033333  0.00023156  1
  Ni  Ni1  1  0.75033203  0.75033209  0.00023163  1
  Ni  Ni2  1  0.66667747  0.16667729  0.83293905  1
  Ni  Ni3  1  0.33431996  0.83431995  0.16822229  1
  Ni  Ni4  1  0.83424965  0.66667519  0.50032234  1
  Ni  Ni5  1  0.16667505  0.33424980  0.50032233  1
