# generated using pymatgen
data_4857_Ag2P2
_symmetry_space_group_name_H-M   'Imma'
_cell_length_a   6.13992508
_cell_length_b   6.13992508
_cell_length_c   6.13992508
_cell_angle_alpha   150.19183325
_cell_angle_beta   140.68510971
_cell_angle_gamma   50.10593320
_chemical_formula_structural   Ag2P2
_chemical_formula_sum   'Ag2 P2'
_cell_volume   72.57080925
loop_
 _symmetry_equiv_pos_site_id
 _symmetry_equiv_pos_as_xyz
  1  'x, y, z'
loop_
 _atom_type_symbol
  Ag
  P
loop_
 _atom_site_type_symbol
 _atom_site_label
 _atom_site_symmetry_multiplicity
 _atom_site_fract_x
 _atom_site_fract_y
 _atom_site_fract_z
 _atom_site_occupancy
  Ag  Ag0  1  0.96841643  0.96841643  1.00000000  1
  Ag  Ag1  1  0.28158357  0.78158357  0.50000000  1
  P  P0  1  0.55216568  0.55216568  1.00000000  1
  P  P1  1  0.69783432  0.19783432  0.50000000  1
