# generated using pymatgen
data_4863_AlBa2
_symmetry_space_group_name_H-M   'I4/mmm'
_cell_length_a   8.05523157
_cell_length_b   8.05523157
_cell_length_c   8.48890061
_cell_angle_alpha   74.71894092
_cell_angle_beta   74.71894092
_cell_angle_gamma   30.54206866
_chemical_formula_structural   AlBa2
_chemical_formula_sum   'Al2 Ba4'
_cell_volume   269.26069070
loop_
 _symmetry_equiv_pos_site_id
 _symmetry_equiv_pos_as_xyz
  1  'x, y, z'
loop_
 _atom_type_symbol
  Al
  Ba
loop_
 _atom_site_type_symbol
 _atom_site_label
 _atom_site_symmetry_multiplicity
 _atom_site_fract_x
 _atom_site_fract_y
 _atom_site_fract_z
 _atom_site_occupancy
  Al  Al0  1  0.63896598  0.63896598  0.72251329  1
  Al  Al1  1  0.63881180  0.63881180  0.22193115  1
  Ba  Ba0  1  0.01144231  0.01144231  0.03629925  1
  Ba  Ba1  1  0.26615817  0.26615817  0.40832185  1
  Ba  Ba2  1  0.01161960  0.01161960  0.53612260  1
  Ba  Ba3  1  0.26633547  0.26633547  0.90814520  1
