# generated using pymatgen
data_4864_K2Mo
_symmetry_space_group_name_H-M   'Fmmm'
_cell_length_a   6.73281365
_cell_length_b   6.47285108
_cell_length_c   2.35141988
_cell_angle_alpha   86.05140354
_cell_angle_beta   73.55797051
_cell_angle_gamma   20.39062595
_chemical_formula_structural   K2Mo
_chemical_formula_sum   'K2 Mo1'
_cell_volume   27.70235512
loop_
 _symmetry_equiv_pos_site_id
 _symmetry_equiv_pos_as_xyz
  1  'x, y, z'
loop_
 _atom_type_symbol
  K
  Mo
loop_
 _atom_site_type_symbol
 _atom_site_label
 _atom_site_symmetry_multiplicity
 _atom_site_fract_x
 _atom_site_fract_y
 _atom_site_fract_z
 _atom_site_occupancy
  K  K0  1  0.00239900  0.00239900  0.99760100  1
  K  K1  1  0.66426767  0.66426767  0.33573233  1
  Mo  Mo0  1  0.33333333  0.33333333  0.66666667  1
