# generated using pymatgen
data_4865_Ag2Ga
_symmetry_space_group_name_H-M   'Immm'
_cell_length_a   5.17569070
_cell_length_b   5.17569070
_cell_length_c   5.17569070
_cell_angle_alpha   144.41448980
_cell_angle_beta   138.37686162
_cell_angle_gamma   55.89039098
_chemical_formula_structural   Ag2Ga
_chemical_formula_sum   'Ag2 Ga1'
_cell_volume   53.18977413
loop_
 _symmetry_equiv_pos_site_id
 _symmetry_equiv_pos_as_xyz
  1  'x, y, z'
loop_
 _atom_type_symbol
  Ag
  Ga
loop_
 _atom_site_type_symbol
 _atom_site_label
 _atom_site_symmetry_multiplicity
 _atom_site_fract_x
 _atom_site_fract_y
 _atom_site_fract_z
 _atom_site_occupancy
  Ag  Ag0  1  0.66232232  0.66232232  0.00000000  1
  Ag  Ag1  1  0.33767768  0.33767768  0.00000000  1
  Ga  Ga0  1  0.00000000  0.00000000  0.00000000  1
