# generated using pymatgen
data_4875_Sn2W4
_symmetry_space_group_name_H-M   'I4/mcm'
_cell_length_a   5.29574135
_cell_length_b   5.29574135
_cell_length_c   5.29574135
_cell_angle_alpha   104.91852445
_cell_angle_beta   104.91852445
_cell_angle_gamma   119.01965057
_chemical_formula_structural   Sn2W4
_chemical_formula_sum   'Sn2 W4'
_cell_volume   111.91317212
loop_
 _symmetry_equiv_pos_site_id
 _symmetry_equiv_pos_as_xyz
  1  'x, y, z'
loop_
 _atom_type_symbol
  Sn
  W
loop_
 _atom_site_type_symbol
 _atom_site_label
 _atom_site_symmetry_multiplicity
 _atom_site_fract_x
 _atom_site_fract_y
 _atom_site_fract_z
 _atom_site_occupancy
  Sn  Sn0  1  0.75000000  0.75000000  0.00000000  1
  Sn  Sn1  1  0.25000000  0.25000000  0.00000000  1
  W  W0  1  0.36618461  0.13381539  0.50000000  1
  W  W1  1  0.63381539  0.86618461  0.50000000  1
  W  W2  1  0.13381539  0.63381539  0.76763079  1
  W  W3  1  0.86618461  0.36618461  0.23236921  1
