# generated using pymatgen
data_4881_Pd8V4
_symmetry_space_group_name_H-M   'Pnma'
_cell_length_a   5.48881563
_cell_length_b   3.87623681
_cell_length_c   8.22939879
_cell_angle_alpha   90.00000000
_cell_angle_beta   90.00000000
_cell_angle_gamma   90.00000000
_chemical_formula_structural   Pd8V4
_chemical_formula_sum   'Pd8 V4'
_cell_volume   175.08827051
loop_
 _symmetry_equiv_pos_site_id
 _symmetry_equiv_pos_as_xyz
  1  'x, y, z'
loop_
 _atom_type_symbol
  Pd
  V
loop_
 _atom_site_type_symbol
 _atom_site_label
 _atom_site_symmetry_multiplicity
 _atom_site_fract_x
 _atom_site_fract_y
 _atom_site_fract_z
 _atom_site_occupancy
  Pd  Pd0  1  0.12154937  0.25000000  0.24181617  1
  Pd  Pd1  1  0.13149203  0.25000000  0.58229038  1
  Pd  Pd2  1  0.36850797  0.75000000  0.08229038  1
  Pd  Pd3  1  0.37845063  0.75000000  0.74181617  1
  Pd  Pd4  1  0.62154937  0.25000000  0.25818383  1
  Pd  Pd5  1  0.63149203  0.25000000  0.91770962  1
  Pd  Pd6  1  0.86850797  0.75000000  0.41770962  1
  Pd  Pd7  1  0.87845063  0.75000000  0.75818383  1
  V  V0  1  0.12496442  0.25000000  0.91763154  1
  V  V1  1  0.37503558  0.75000000  0.41763154  1
  V  V2  1  0.62496442  0.25000000  0.58236846  1
  V  V3  1  0.87503558  0.75000000  0.08236846  1
