# generated using pymatgen
data_4883_Mo6Rh2
_symmetry_space_group_name_H-M   'I4/mmm'
_cell_length_a   3.93025666
_cell_length_b   3.93025666
_cell_length_c   8.46764702
_cell_angle_alpha   76.58073942
_cell_angle_beta   76.58073942
_cell_angle_gamma   90.00000000
_chemical_formula_structural   Mo6Rh2
_chemical_formula_sum   'Mo6 Rh2'
_cell_volume   123.55369957
loop_
 _symmetry_equiv_pos_site_id
 _symmetry_equiv_pos_as_xyz
  1  'x, y, z'
loop_
 _atom_type_symbol
  Mo
  Rh
loop_
 _atom_site_type_symbol
 _atom_site_label
 _atom_site_symmetry_multiplicity
 _atom_site_fract_x
 _atom_site_fract_y
 _atom_site_fract_z
 _atom_site_occupancy
  Mo  Mo0  1  0.00000000  0.50000000  0.00000000  1
  Mo  Mo1  1  0.87978766  0.87978766  0.24042469  1
  Mo  Mo2  1  0.12021234  0.12021234  0.75957531  1
  Mo  Mo3  1  0.75000000  0.25000000  0.50000000  1
  Mo  Mo4  1  0.25000000  0.75000000  0.50000000  1
  Mo  Mo5  1  0.50000000  0.00000000  0.00000000  1
  Rh  Rh0  1  0.62613929  0.62613929  0.74772142  1
  Rh  Rh1  1  0.37386071  0.37386071  0.25227858  1
