# generated using pymatgen
data_4885_AsI
_symmetry_space_group_name_H-M   'P-6m2'
_cell_length_a   3.74470944
_cell_length_b   3.74471511
_cell_length_c   4.49272991
_cell_angle_alpha   90.00000000
_cell_angle_beta   90.00000000
_cell_angle_gamma   119.99995877
_chemical_formula_structural   AsI
_chemical_formula_sum   'As1 I1'
_cell_volume   54.56046101
loop_
 _symmetry_equiv_pos_site_id
 _symmetry_equiv_pos_as_xyz
  1  'x, y, z'
loop_
 _atom_type_symbol
  As
  I
loop_
 _atom_site_type_symbol
 _atom_site_label
 _atom_site_symmetry_multiplicity
 _atom_site_fract_x
 _atom_site_fract_y
 _atom_site_fract_z
 _atom_site_occupancy
  As  As0  1  0.66666584  0.33333314  0.74999967  1
  I  I0  1  0.33333314  0.66666627  0.25000063  1
