# generated using pymatgen
data_4886_Al2Br2
_symmetry_space_group_name_H-M   'Pmmn'
_cell_length_a   3.73862881
_cell_length_b   6.14795618
_cell_length_c   5.77245420
_cell_angle_alpha   90.00000000
_cell_angle_beta   90.00000000
_cell_angle_gamma   90.00000000
_chemical_formula_structural   Al2Br2
_chemical_formula_sum   'Al2 Br2'
_cell_volume   132.67943319
loop_
 _symmetry_equiv_pos_site_id
 _symmetry_equiv_pos_as_xyz
  1  'x, y, z'
loop_
 _atom_type_symbol
  Al
  Br
loop_
 _atom_site_type_symbol
 _atom_site_label
 _atom_site_symmetry_multiplicity
 _atom_site_fract_x
 _atom_site_fract_y
 _atom_site_fract_z
 _atom_site_occupancy
  Al  Al0  1  0.00000000  0.00000000  0.18253008  1
  Al  Al1  1  0.50000000  0.50000000  0.65080326  1
  Br  Br0  1  0.50000000  0.00000000  0.53861777  1
  Br  Br1  1  0.00000000  0.50000000  0.29471556  1
