# generated using pymatgen
data_488_Ga2Sr
_symmetry_space_group_name_H-M   'P6/mmm'
_cell_length_a   4.35578955
_cell_length_b   4.35578921
_cell_length_c   4.74994936
_cell_angle_alpha   90.00000000
_cell_angle_beta   90.00000000
_cell_angle_gamma   120.00098726
_chemical_formula_structural   Ga2Sr
_chemical_formula_sum   'Ga2 Sr1'
_cell_volume   78.04570975
loop_
 _symmetry_equiv_pos_site_id
 _symmetry_equiv_pos_as_xyz
  1  'x, y, z'
loop_
 _atom_type_symbol
  Ga
  Sr
loop_
 _atom_site_type_symbol
 _atom_site_label
 _atom_site_symmetry_multiplicity
 _atom_site_fract_x
 _atom_site_fract_y
 _atom_site_fract_z
 _atom_site_occupancy
  Ga  Ga0  1  0.66670400  0.33339301  0.50000000  1
  Ga  Ga1  1  0.33339301  0.66670400  0.50000000  1
  Sr  Sr0  1  0.00000299  0.00000299  0.00000000  1
