# generated using pymatgen
data_4892_Mn2Rh4
_symmetry_space_group_name_H-M   'Cmcm'
_cell_length_a   2.75963695
_cell_length_b   6.93797767
_cell_length_c   4.43470803
_cell_angle_alpha   90.00000000
_cell_angle_beta   90.00000000
_cell_angle_gamma   78.52858281
_chemical_formula_structural   Mn2Rh4
_chemical_formula_sum   'Mn2 Rh4'
_cell_volume   83.21212458
loop_
 _symmetry_equiv_pos_site_id
 _symmetry_equiv_pos_as_xyz
  1  'x, y, z'
loop_
 _atom_type_symbol
  Mn
  Rh
loop_
 _atom_site_type_symbol
 _atom_site_label
 _atom_site_symmetry_multiplicity
 _atom_site_fract_x
 _atom_site_fract_y
 _atom_site_fract_z
 _atom_site_occupancy
  Mn  Mn0  1  0.99775684  0.00448633  0.00000000  1
  Mn  Mn1  1  0.55779872  0.88440256  0.50000000  1
  Rh  Rh0  1  0.65885949  0.68228102  0.00000000  1
  Rh  Rh1  1  0.33753569  0.32492862  0.00000000  1
  Rh  Rh2  1  0.21801987  0.56396027  0.50000000  1
  Rh  Rh3  1  0.89669607  0.20660787  0.50000000  1
