# generated using pymatgen
data_4896_Al5As24
_symmetry_space_group_name_H-M   'I-43m'
_cell_length_a   9.66665317
_cell_length_b   9.66665317
_cell_length_c   9.66665317
_cell_angle_alpha   109.47122063
_cell_angle_beta   109.47122063
_cell_angle_gamma   109.47122063
_chemical_formula_structural   Al5As24
_chemical_formula_sum   'Al5 As24'
_cell_volume   695.35490056
loop_
 _symmetry_equiv_pos_site_id
 _symmetry_equiv_pos_as_xyz
  1  'x, y, z'
loop_
 _atom_type_symbol
  Al
  As
loop_
 _atom_site_type_symbol
 _atom_site_label
 _atom_site_symmetry_multiplicity
 _atom_site_fract_x
 _atom_site_fract_y
 _atom_site_fract_z
 _atom_site_occupancy
  Al  Al0  1  1.00000000  0.72529673  0.00000000  1
  Al  Al1  1  0.72529673  0.00000000  0.00000000  1
  Al  Al2  1  1.00000000  0.00000000  0.72529673  1
  Al  Al3  1  0.27470327  0.27470327  0.27470327  1
  Al  Al4  1  0.00000000  0.00000000  0.00000000  1
  As  As0  1  0.20266853  0.52597836  0.00000000  1
  As  As1  1  0.52597836  0.20266853  0.00000000  1
  As  As2  1  0.79733147  0.79733147  0.32330983  1
  As  As3  1  0.47402164  0.47402164  0.67669017  1
  As  As4  1  0.79733147  0.32330983  0.79733147  1
  As  As5  1  0.47402164  0.67669017  0.47402164  1
  As  As6  1  0.52597836  0.00000000  0.20266853  1
  As  As7  1  0.20266853  0.00000000  0.52597836  1
  As  As8  1  1.00000000  0.52597836  0.20266853  1
  As  As9  1  1.00000000  0.20266853  0.52597836  1
  As  As10  1  0.67669017  0.47402164  0.47402164  1
  As  As11  1  0.32330983  0.79733147  0.79733147  1
  As  As12  1  0.74983682  0.51870694  0.00000000  1
  As  As13  1  0.51870694  0.74983682  0.00000000  1
  As  As14  1  0.25016318  0.25016318  0.76887012  1
  As  As15  1  0.48129306  0.48129306  0.23112988  1
  As  As16  1  0.25016318  0.76887012  0.25016318  1
  As  As17  1  0.48129306  0.23112988  0.48129306  1
  As  As18  1  0.51870694  0.00000000  0.74983682  1
  As  As19  1  0.74983682  0.00000000  0.51870694  1
  As  As20  1  0.00000000  0.51870694  0.74983682  1
  As  As21  1  0.00000000  0.74983682  0.51870694  1
  As  As22  1  0.23112988  0.48129306  0.48129306  1
  As  As23  1  0.76887012  0.25016318  0.25016318  1
