# generated using pymatgen
data_4898_Al2Au
_symmetry_space_group_name_H-M   'I4/mmm'
_cell_length_a   4.30124255
_cell_length_b   6.00916447
_cell_length_c   4.30251248
_cell_angle_alpha   90.00000000
_cell_angle_beta   90.00000000
_cell_angle_gamma   90.00000000
_chemical_formula_structural   Al2Au
_chemical_formula_sum   'Al4 Au2'
_cell_volume   111.20649756
loop_
 _symmetry_equiv_pos_site_id
 _symmetry_equiv_pos_as_xyz
  1  'x, y, z'
loop_
 _atom_type_symbol
  Al
  Au
loop_
 _atom_site_type_symbol
 _atom_site_label
 _atom_site_symmetry_multiplicity
 _atom_site_fract_x
 _atom_site_fract_y
 _atom_site_fract_z
 _atom_site_occupancy
  Al  Al0  1  0.00000000  0.25012326  0.50019867  1
  Al  Al1  1  0.00000000  0.74987674  0.49980133  1
  Al  Al2  1  0.50000000  0.75012326  0.99980133  1
  Al  Al3  1  0.50000000  0.24987674  0.00019867  1
  Au  Au0  1  0.00000000  0.00000000  0.00000000  1
  Au  Au1  1  0.50000000  0.50000000  0.50000000  1
