# generated using pymatgen
data_4899_InW3
_symmetry_space_group_name_H-M   'P2/m'
_cell_length_a   4.49732151
_cell_length_b   2.79654077
_cell_length_c   5.62637649
_cell_angle_alpha   76.14525012
_cell_angle_beta   90.00000000
_cell_angle_gamma   90.00000000
_chemical_formula_structural   InW3
_chemical_formula_sum   'In1 W3'
_cell_volume   68.70384163
loop_
 _symmetry_equiv_pos_site_id
 _symmetry_equiv_pos_as_xyz
  1  'x, y, z'
loop_
 _atom_type_symbol
  In
  W
loop_
 _atom_site_type_symbol
 _atom_site_label
 _atom_site_symmetry_multiplicity
 _atom_site_fract_x
 _atom_site_fract_y
 _atom_site_fract_z
 _atom_site_occupancy
  In  In0  1  0.00000000  0.00000000  0.00000000  1
  W  W0  1  0.50000000  0.71894537  0.74035163  1
  W  W1  1  0.00000000  0.50000000  0.50000000  1
  W  W2  1  0.50000000  0.28105463  0.25964837  1
