# generated using pymatgen
data_489_In2Br2
_symmetry_space_group_name_H-M   'Cmcm'
_cell_length_a   4.50461119
_cell_length_b   4.67304335
_cell_length_c   6.60191588
_cell_angle_alpha   90.00000000
_cell_angle_beta   70.05247383
_cell_angle_gamma   90.00000000
_chemical_formula_structural   In2Br2
_chemical_formula_sum   'Br2 In2'
_cell_volume   130.63437893
loop_
 _symmetry_equiv_pos_site_id
 _symmetry_equiv_pos_as_xyz
  1  'x, y, z'
loop_
 _atom_type_symbol
  Br
  In
loop_
 _atom_site_type_symbol
 _atom_site_label
 _atom_site_symmetry_multiplicity
 _atom_site_fract_x
 _atom_site_fract_y
 _atom_site_fract_z
 _atom_site_occupancy
  Br  Br0  1  0.85128028  0.25000000  0.29743943  1
  Br  Br1  1  0.14871972  0.75000000  0.70256057  1
  In  In0  1  0.39419473  0.75000000  0.21161053  1
  In  In1  1  0.60580527  0.25000000  0.78838947  1
