# generated using pymatgen
data_4910_AgGa5
_symmetry_space_group_name_H-M   'Cmmm'
_cell_length_a   6.70214253
_cell_length_b   6.70214253
_cell_length_c   4.19473980
_cell_angle_alpha   90.00000000
_cell_angle_beta   90.00000000
_cell_angle_gamma   144.24783840
_chemical_formula_structural   AgGa5
_chemical_formula_sum   'Ag1 Ga5'
_cell_volume   110.09144611
loop_
 _symmetry_equiv_pos_site_id
 _symmetry_equiv_pos_as_xyz
  1  'x, y, z'
loop_
 _atom_type_symbol
  Ag
  Ga
loop_
 _atom_site_type_symbol
 _atom_site_label
 _atom_site_symmetry_multiplicity
 _atom_site_fract_x
 _atom_site_fract_y
 _atom_site_fract_z
 _atom_site_occupancy
  Ag  Ag0  1  0.02784941  0.97215059  0.00000000  1
  Ga  Ga0  1  0.19276079  0.80723921  0.50000000  1
  Ga  Ga1  1  0.36377115  0.63622885  0.00000000  1
  Ga  Ga2  1  0.52769362  0.47230638  0.50000000  1
  Ga  Ga3  1  0.69192377  0.30807623  0.00000000  1
  Ga  Ga4  1  0.86266793  0.13733207  0.50000000  1
