# generated using pymatgen
data_4913_Na3Rh
_symmetry_space_group_name_H-M   'Cmmm'
_cell_length_a   2.98301997
_cell_length_b   2.98301997
_cell_length_c   10.72672527
_cell_angle_alpha   90.00000000
_cell_angle_beta   90.00000000
_cell_angle_gamma   95.95428230
_chemical_formula_structural   Na3Rh
_chemical_formula_sum   'Na3 Rh1'
_cell_volume   94.93582121
loop_
 _symmetry_equiv_pos_site_id
 _symmetry_equiv_pos_as_xyz
  1  'x, y, z'
loop_
 _atom_type_symbol
  Na
  Rh
loop_
 _atom_site_type_symbol
 _atom_site_label
 _atom_site_symmetry_multiplicity
 _atom_site_fract_x
 _atom_site_fract_y
 _atom_site_fract_z
 _atom_site_occupancy
  Na  Na0  1  0.00000000  0.00000000  0.05179862  1
  Na  Na1  1  0.50000000  0.50000000  0.75000000  1
  Na  Na2  1  0.00000000  0.00000000  0.44820138  1
  Rh  Rh0  1  0.50000000  0.50000000  0.25000000  1
