# generated using pymatgen
data_4914_Fe2As
_symmetry_space_group_name_H-M   'I4/mmm'
_cell_length_a   4.43288598
_cell_length_b   4.43288598
_cell_length_c   6.31961946
_cell_angle_alpha   69.09687457
_cell_angle_beta   69.09687457
_cell_angle_gamma   41.82154825
_chemical_formula_structural   Fe2As
_chemical_formula_sum   'As2 Fe4'
_cell_volume   76.52915884
loop_
 _symmetry_equiv_pos_site_id
 _symmetry_equiv_pos_as_xyz
  1  'x, y, z'
loop_
 _atom_type_symbol
  As
  Fe
loop_
 _atom_site_type_symbol
 _atom_site_label
 _atom_site_symmetry_multiplicity
 _atom_site_fract_x
 _atom_site_fract_y
 _atom_site_fract_z
 _atom_site_occupancy
  As  As0  1  0.63897899  0.63897899  0.72211787  1
  As  As1  1  0.63879878  0.63879878  0.22232658  1
  Fe  Fe0  1  0.96990094  0.96990094  0.05637851  1
  Fe  Fe1  1  0.30794128  0.30794128  0.38763503  1
  Fe  Fe2  1  0.96983649  0.96983649  0.55680942  1
  Fe  Fe3  1  0.30787683  0.30787683  0.88806593  1
