# generated using pymatgen
data_491_Ag2Al2
_symmetry_space_group_name_H-M   'P4/nmm'
_cell_length_a   2.87507335
_cell_length_b   2.87507335
_cell_length_c   8.24068633
_cell_angle_alpha   90.00000000
_cell_angle_beta   90.00000000
_cell_angle_gamma   90.00000000
_chemical_formula_structural   Ag2Al2
_chemical_formula_sum   'Ag2 Al2'
_cell_volume   68.11789860
loop_
 _symmetry_equiv_pos_site_id
 _symmetry_equiv_pos_as_xyz
  1  'x, y, z'
loop_
 _atom_type_symbol
  Ag
  Al
loop_
 _atom_site_type_symbol
 _atom_site_label
 _atom_site_symmetry_multiplicity
 _atom_site_fract_x
 _atom_site_fract_y
 _atom_site_fract_z
 _atom_site_occupancy
  Ag  Ag0  1  0.25000000  0.25000000  0.13607436  1
  Ag  Ag1  1  0.75000000  0.75000000  0.86392564  1
  Al  Al0  1  0.25000000  0.25000000  0.62381799  1
  Al  Al1  1  0.75000000  0.75000000  0.37618201  1
