# generated using pymatgen
data_4921_NaP
_symmetry_space_group_name_H-M   'Cmmm'
_cell_length_a   4.03752553
_cell_length_b   3.95593635
_cell_length_c   4.41382092
_cell_angle_alpha   90.00000000
_cell_angle_beta   90.00000000
_cell_angle_gamma   90.00000000
_chemical_formula_structural   NaP
_chemical_formula_sum   'Na2 P2'
_cell_volume   70.49840405
loop_
 _symmetry_equiv_pos_site_id
 _symmetry_equiv_pos_as_xyz
  1  'x, y, z'
loop_
 _atom_type_symbol
  Na
  P
loop_
 _atom_site_type_symbol
 _atom_site_label
 _atom_site_symmetry_multiplicity
 _atom_site_fract_x
 _atom_site_fract_y
 _atom_site_fract_z
 _atom_site_occupancy
  Na  Na0  1  0.00000000  0.00000000  0.91666014  1
  Na  Na1  1  0.50000000  0.50000000  0.91667320  1
  P  P0  1  0.50000000  0.00000000  0.41661276  1
  P  P1  1  0.00000000  0.50000000  0.41672058  1
