# generated using pymatgen
data_4923_Rh6W4
_symmetry_space_group_name_H-M   'Fdd2'
_cell_length_a   5.27550486
_cell_length_b   5.27550486
_cell_length_c   7.08839412
_cell_angle_alpha   81.11028406
_cell_angle_beta   81.11028406
_cell_angle_gamma   125.78360365
_chemical_formula_structural   Rh6W4
_chemical_formula_sum   'Rh6 W4'
_cell_volume   150.55306523
loop_
 _symmetry_equiv_pos_site_id
 _symmetry_equiv_pos_as_xyz
  1  'x, y, z'
loop_
 _atom_type_symbol
  Rh
  W
loop_
 _atom_site_type_symbol
 _atom_site_label
 _atom_site_symmetry_multiplicity
 _atom_site_fract_x
 _atom_site_fract_y
 _atom_site_fract_z
 _atom_site_occupancy
  Rh  Rh0  1  0.65339837  0.73981009  0.79333735  1
  Rh  Rh1  1  0.53314744  0.44673572  0.20666265  1
  Rh  Rh2  1  0.19673572  0.78314744  0.70666265  1
  Rh  Rh3  1  0.48981009  0.90339837  0.29333735  1
  Rh  Rh4  1  0.07521661  0.07521661  0.00000000  1
  Rh  Rh5  1  0.82521661  0.32521661  0.50000000  1
  W  W0  1  0.63789906  0.20225983  0.89807869  1
  W  W1  1  0.10033851  0.53597775  0.10192131  1
  W  W2  1  0.28597775  0.35033851  0.60192131  1
  W  W3  1  0.95225983  0.88789906  0.39807869  1
