# generated using pymatgen
data_4925_AuPa
_symmetry_space_group_name_H-M   'P-6m2'
_cell_length_a   3.34865848
_cell_length_b   3.34857390
_cell_length_c   4.79241398
_cell_angle_alpha   90.00000000
_cell_angle_beta   90.00000000
_cell_angle_gamma   120.00082508
_chemical_formula_structural   AuPa
_chemical_formula_sum   'Au1 Pa1'
_cell_volume   46.53846908
loop_
 _symmetry_equiv_pos_site_id
 _symmetry_equiv_pos_as_xyz
  1  'x, y, z'
loop_
 _atom_type_symbol
  Au
  Pa
loop_
 _atom_site_type_symbol
 _atom_site_label
 _atom_site_symmetry_multiplicity
 _atom_site_fract_x
 _atom_site_fract_y
 _atom_site_fract_z
 _atom_site_occupancy
  Au  Au0  1  0.66666788  0.33333237  0.74999899  1
  Pa  Pa0  1  0.33333343  0.66666685  0.24999966  1
