# generated using pymatgen
data_4931_Pb4As3
_symmetry_space_group_name_H-M   'I4/mmm'
_cell_length_a   12.16570829
_cell_length_b   12.16570829
_cell_length_c   12.16570829
_cell_angle_alpha   160.83746734
_cell_angle_beta   160.83746734
_cell_angle_gamma   27.22930733
_chemical_formula_structural   Pb4As3
_chemical_formula_sum   'As3 Pb4'
_cell_volume   193.92897653
loop_
 _symmetry_equiv_pos_site_id
 _symmetry_equiv_pos_as_xyz
  1  'x, y, z'
loop_
 _atom_type_symbol
  As
  Pb
loop_
 _atom_site_type_symbol
 _atom_site_label
 _atom_site_symmetry_multiplicity
 _atom_site_fract_x
 _atom_site_fract_y
 _atom_site_fract_z
 _atom_site_occupancy
  As  As0  1  0.00000000  0.00000000  0.00000000  1
  As  As1  1  0.70361746  0.70361746  0.00000000  1
  As  As2  1  0.29638254  0.29638254  0.00000000  1
  Pb  Pb0  1  0.83188585  0.83188585  0.00000000  1
  Pb  Pb1  1  0.16811415  0.16811415  0.00000000  1
  Pb  Pb2  1  0.56729835  0.56729835  0.00000000  1
  Pb  Pb3  1  0.43270165  0.43270165  0.00000000  1
