# generated using pymatgen
data_4939_Ir4Nb8
_symmetry_space_group_name_H-M   'Pa -3'
_cell_length_a   6.20965170
_cell_length_b   6.20965170
_cell_length_c   6.20965170
_cell_angle_alpha   90.00000000
_cell_angle_beta   90.00000000
_cell_angle_gamma   90.00000000
_chemical_formula_structural   Ir4Nb8
_chemical_formula_sum   'Ir4 Nb8'
_cell_volume   239.44276763
loop_
 _symmetry_equiv_pos_site_id
 _symmetry_equiv_pos_as_xyz
  1  'x, y, z'
loop_
 _atom_type_symbol
  Ir
  Nb
loop_
 _atom_site_type_symbol
 _atom_site_label
 _atom_site_symmetry_multiplicity
 _atom_site_fract_x
 _atom_site_fract_y
 _atom_site_fract_z
 _atom_site_occupancy
  Ir  Ir0  1  0.00000000  0.00000000  0.00000000  1
  Ir  Ir1  1  0.50000000  0.50000000  0.00000000  1
  Ir  Ir2  1  0.50000000  0.00000000  0.50000000  1
  Ir  Ir3  1  0.00000000  0.50000000  0.50000000  1
  Nb  Nb0  1  0.36679406  0.36679406  0.36679406  1
  Nb  Nb1  1  0.63320594  0.63320594  0.63320594  1
  Nb  Nb2  1  0.86679406  0.13320594  0.63320594  1
  Nb  Nb3  1  0.13320594  0.86679406  0.36679406  1
  Nb  Nb4  1  0.63320594  0.86679406  0.13320594  1
  Nb  Nb5  1  0.36679406  0.13320594  0.86679406  1
  Nb  Nb6  1  0.13320594  0.63320594  0.86679406  1
  Nb  Nb7  1  0.86679406  0.36679406  0.13320594  1
