# generated using pymatgen
data_4941_YbGe
_symmetry_space_group_name_H-M   'P4/mmm'
_cell_length_a   3.22528355
_cell_length_b   4.56123974
_cell_length_c   4.21467983
_cell_angle_alpha   90.00000000
_cell_angle_beta   90.00000000
_cell_angle_gamma   45.00000000
_chemical_formula_structural   YbGe
_chemical_formula_sum   'Ge1 Yb1'
_cell_volume   43.84301298
loop_
 _symmetry_equiv_pos_site_id
 _symmetry_equiv_pos_as_xyz
  1  'x, y, z'
loop_
 _atom_type_symbol
  Ge
  Yb
loop_
 _atom_site_type_symbol
 _atom_site_label
 _atom_site_symmetry_multiplicity
 _atom_site_fract_x
 _atom_site_fract_y
 _atom_site_fract_z
 _atom_site_occupancy
  Ge  Ge0  1  0.00000000  0.00000000  0.00000000  1
  Yb  Yb0  1  0.00000002  0.50000067  0.49999971  1
