# generated using pymatgen
data_4942_PtW2
_symmetry_space_group_name_H-M   'Fmmm'
_cell_length_a   6.81216554
_cell_length_b   6.72450172
_cell_length_c   2.72904649
_cell_angle_alpha   80.17023178
_cell_angle_beta   76.57003913
_cell_angle_gamma   23.25201525
_chemical_formula_structural   PtW2
_chemical_formula_sum   'Pt1 W2'
_cell_volume   47.70539625
loop_
 _symmetry_equiv_pos_site_id
 _symmetry_equiv_pos_as_xyz
  1  'x, y, z'
loop_
 _atom_type_symbol
  Pt
  W
loop_
 _atom_site_type_symbol
 _atom_site_label
 _atom_site_symmetry_multiplicity
 _atom_site_fract_x
 _atom_site_fract_y
 _atom_site_fract_z
 _atom_site_occupancy
  Pt  Pt0  1  0.00000000  0.00000000  0.00000000  1
  W  W0  1  0.33595459  0.33605218  0.66398781  1
  W  W1  1  0.66404541  0.66394782  0.33601219  1
