# generated using pymatgen
data_4947_Pd2W4
_symmetry_space_group_name_H-M   'I4/mcm'
_cell_length_a   5.03129223
_cell_length_b   5.08569931
_cell_length_c   5.08569931
_cell_angle_alpha   104.16289896
_cell_angle_beta   119.64673769
_cell_angle_gamma   60.35326231
_chemical_formula_structural   Pd2W4
_chemical_formula_sum   'Pd2 W4'
_cell_volume   98.29063143
loop_
 _symmetry_equiv_pos_site_id
 _symmetry_equiv_pos_as_xyz
  1  'x, y, z'
loop_
 _atom_type_symbol
  Pd
  W
loop_
 _atom_site_type_symbol
 _atom_site_label
 _atom_site_symmetry_multiplicity
 _atom_site_fract_x
 _atom_site_fract_y
 _atom_site_fract_z
 _atom_site_occupancy
  Pd  Pd0  1  0.25000000  0.00000000  0.00000000  1
  Pd  Pd1  1  0.75000000  0.00000000  0.00000000  1
  W  W0  1  0.14078266  0.21843467  0.50000000  1
  W  W1  1  0.35921734  0.50000000  0.21843467  1
  W  W2  1  0.64078266  0.50000000  0.78156533  1
  W  W3  1  0.85921734  0.78156533  0.50000000  1
