# generated using pymatgen
data_4952_Pd2W
_symmetry_space_group_name_H-M   'I4/mmm'
_cell_length_a   3.32943668
_cell_length_b   4.80314755
_cell_length_c   3.32943668
_cell_angle_alpha   69.72117256
_cell_angle_beta   90.00000000
_cell_angle_gamma   110.27882744
_chemical_formula_structural   Pd2W
_chemical_formula_sum   'Pd2 W1'
_cell_volume   46.40912616
loop_
 _symmetry_equiv_pos_site_id
 _symmetry_equiv_pos_as_xyz
  1  'x, y, z'
loop_
 _atom_type_symbol
  Pd
  W
loop_
 _atom_site_type_symbol
 _atom_site_label
 _atom_site_symmetry_multiplicity
 _atom_site_fract_x
 _atom_site_fract_y
 _atom_site_fract_z
 _atom_site_occupancy
  Pd  Pd0  1  0.33332577  0.66665155  0.66667423  1
  Pd  Pd1  1  0.66667423  0.33334845  0.33332577  1
  W  W0  1  0.00000000  0.00000000  0.00000000  1
