# generated using pymatgen
data_4956_AlSb2
_symmetry_space_group_name_H-M   'I4/mmm'
_cell_length_a   6.23284081
_cell_length_b   6.23284081
_cell_length_c   6.23284081
_cell_angle_alpha   145.46555447
_cell_angle_beta   145.46238948
_cell_angle_gamma   49.64363616
_chemical_formula_structural   AlSb2
_chemical_formula_sum   'Al1 Sb2'
_cell_volume   77.45888199
loop_
 _symmetry_equiv_pos_site_id
 _symmetry_equiv_pos_as_xyz
  1  'x, y, z'
loop_
 _atom_type_symbol
  Al
  Sb
loop_
 _atom_site_type_symbol
 _atom_site_label
 _atom_site_symmetry_multiplicity
 _atom_site_fract_x
 _atom_site_fract_y
 _atom_site_fract_z
 _atom_site_occupancy
  Al  Al0  1  0.00000000  0.00000000  0.00000000  1
  Sb  Sb0  1  0.62909297  0.62909297  0.00000000  1
  Sb  Sb1  1  0.37090703  0.37090703  0.00000000  1
