# generated using pymatgen
data_4959_GaNa3
_symmetry_space_group_name_H-M   'P4/mmm'
_cell_length_a   3.41854300
_cell_length_b   3.41854300
_cell_length_c   9.80321241
_cell_angle_alpha   90.00000000
_cell_angle_beta   90.00000000
_cell_angle_gamma   90.00000000
_chemical_formula_structural   GaNa3
_chemical_formula_sum   'Ga1 Na3'
_cell_volume   114.56461680
loop_
 _symmetry_equiv_pos_site_id
 _symmetry_equiv_pos_as_xyz
  1  'x, y, z'
loop_
 _atom_type_symbol
  Ga
  Na
loop_
 _atom_site_type_symbol
 _atom_site_label
 _atom_site_symmetry_multiplicity
 _atom_site_fract_x
 _atom_site_fract_y
 _atom_site_fract_z
 _atom_site_occupancy
  Ga  Ga0  1  0.00000000  0.00000000  0.00000000  1
  Na  Na0  1  0.50000000  0.50000000  0.79131310  1
  Na  Na1  1  0.00000000  0.00000000  0.50000000  1
  Na  Na2  1  0.50000000  0.50000000  0.20868690  1
