# generated using pymatgen
data_4961_IrNa3
_symmetry_space_group_name_H-M   'Pmm2'
_cell_length_a   2.68433495
_cell_length_b   5.36282626
_cell_length_c   5.82479250
_cell_angle_alpha   90.00000000
_cell_angle_beta   90.00000000
_cell_angle_gamma   90.00000000
_chemical_formula_structural   IrNa3
_chemical_formula_sum   'Ir1 Na3'
_cell_volume   83.85151083
loop_
 _symmetry_equiv_pos_site_id
 _symmetry_equiv_pos_as_xyz
  1  'x, y, z'
loop_
 _atom_type_symbol
  Ir
  Na
loop_
 _atom_site_type_symbol
 _atom_site_label
 _atom_site_symmetry_multiplicity
 _atom_site_fract_x
 _atom_site_fract_y
 _atom_site_fract_z
 _atom_site_occupancy
  Ir  Ir0  1  0.00000000  0.00000000  0.00681300  1
  Na  Na0  1  0.50000000  0.00000000  0.50543300  1
  Na  Na1  1  0.50000000  0.50000000  0.85268993  1
  Na  Na2  1  0.00000000  0.50000000  0.30173074  1
