# generated using pymatgen
data_4966_PdU
_symmetry_space_group_name_H-M   'P-6m2'
_cell_length_a   2.94939000
_cell_length_b   2.94937613
_cell_length_c   5.05531800
_cell_angle_alpha   89.99992148
_cell_angle_beta   90.00015704
_cell_angle_gamma   119.99967571
_chemical_formula_structural   PdU
_chemical_formula_sum   'Pd1 U1'
_cell_volume   38.08402968
loop_
 _symmetry_equiv_pos_site_id
 _symmetry_equiv_pos_as_xyz
  1  'x, y, z'
loop_
 _atom_type_symbol
  Pd
  U
loop_
 _atom_site_type_symbol
 _atom_site_label
 _atom_site_symmetry_multiplicity
 _atom_site_fract_x
 _atom_site_fract_y
 _atom_site_fract_z
 _atom_site_occupancy
  Pd  Pd0  1  0.66666573  0.33333343  0.74999875  1
  U  U0  1  0.33333331  0.66666342  0.25000012  1
