# generated using pymatgen
data_4969_PtP3
_symmetry_space_group_name_H-M   'Pmmm'
_cell_length_a   2.80012160
_cell_length_b   4.10545685
_cell_length_c   5.48528523
_cell_angle_alpha   90.00000000
_cell_angle_beta   90.00000000
_cell_angle_gamma   90.00000000
_chemical_formula_structural   PtP3
_chemical_formula_sum   'P3 Pt1'
_cell_volume   63.05762348
loop_
 _symmetry_equiv_pos_site_id
 _symmetry_equiv_pos_as_xyz
  1  'x, y, z'
loop_
 _atom_type_symbol
  P
  Pt
loop_
 _atom_site_type_symbol
 _atom_site_label
 _atom_site_symmetry_multiplicity
 _atom_site_fract_x
 _atom_site_fract_y
 _atom_site_fract_z
 _atom_site_occupancy
  P  P0  1  0.50000000  0.50000000  0.79701420  1
  P  P1  1  0.00000000  0.00000000  0.50000000  1
  P  P2  1  0.50000000  0.50000000  0.20298580  1
  Pt  Pt0  1  0.00000000  0.00000000  0.00000000  1
