# generated using pymatgen
data_4970_PdAs
_symmetry_space_group_name_H-M   'Cmmm'
_cell_length_a   3.13055313
_cell_length_b   3.13055313
_cell_length_c   3.62912578
_cell_angle_alpha   90.00000000
_cell_angle_beta   90.00000000
_cell_angle_gamma   96.46961047
_chemical_formula_structural   PdAs
_chemical_formula_sum   'As1 Pd1'
_cell_volume   35.34025197
loop_
 _symmetry_equiv_pos_site_id
 _symmetry_equiv_pos_as_xyz
  1  'x, y, z'
loop_
 _atom_type_symbol
  As
  Pd
loop_
 _atom_site_type_symbol
 _atom_site_label
 _atom_site_symmetry_multiplicity
 _atom_site_fract_x
 _atom_site_fract_y
 _atom_site_fract_z
 _atom_site_occupancy
  As  As0  1  0.00000000  0.00000000  0.00000000  1
  Pd  Pd0  1  0.50000000  0.50000000  0.50000000  1
