# generated using pymatgen
data_4974_SmYb
_symmetry_space_group_name_H-M   'P-6m2'
_cell_length_a   3.64618800
_cell_length_b   3.64619215
_cell_length_c   6.05545000
_cell_angle_alpha   90.00006074
_cell_angle_beta   89.99997482
_cell_angle_gamma   119.99959234
_chemical_formula_structural   SmYb
_chemical_formula_sum   'Sm1 Yb1'
_cell_volume   69.72001106
loop_
 _symmetry_equiv_pos_site_id
 _symmetry_equiv_pos_as_xyz
  1  'x, y, z'
loop_
 _atom_type_symbol
  Sm
  Yb
loop_
 _atom_site_type_symbol
 _atom_site_label
 _atom_site_symmetry_multiplicity
 _atom_site_fract_x
 _atom_site_fract_y
 _atom_site_fract_z
 _atom_site_occupancy
  Sm  Sm0  1  0.66666659  0.33333221  0.75000039  1
  Yb  Yb0  1  0.33333443  0.66666726  0.25000138  1
