# generated using pymatgen
data_4977_Fe2Ir2
_symmetry_space_group_name_H-M   'P4/nmm'
_cell_length_a   2.78365805
_cell_length_b   2.78365805
_cell_length_c   6.80176780
_cell_angle_alpha   90.00000000
_cell_angle_beta   90.00000000
_cell_angle_gamma   90.00000000
_chemical_formula_structural   Fe2Ir2
_chemical_formula_sum   'Fe2 Ir2'
_cell_volume   52.70521279
loop_
 _symmetry_equiv_pos_site_id
 _symmetry_equiv_pos_as_xyz
  1  'x, y, z'
loop_
 _atom_type_symbol
  Fe
  Ir
loop_
 _atom_site_type_symbol
 _atom_site_label
 _atom_site_symmetry_multiplicity
 _atom_site_fract_x
 _atom_site_fract_y
 _atom_site_fract_z
 _atom_site_occupancy
  Fe  Fe0  1  0.00000000  0.00000000  0.01605629  1
  Fe  Fe1  1  0.50000000  0.50000000  0.23394371  1
  Ir  Ir0  1  0.00000000  0.00000000  0.48244217  1
  Ir  Ir1  1  0.50000000  0.50000000  0.76755783  1
