# generated using pymatgen
data_4978_Sn3Br
_symmetry_space_group_name_H-M   'P4/mmm'
_cell_length_a   3.47377435
_cell_length_b   5.72405494
_cell_length_c   5.68168530
_cell_angle_alpha   90.00000000
_cell_angle_beta   90.00000000
_cell_angle_gamma   90.00000000
_chemical_formula_structural   Sn3Br
_chemical_formula_sum   'Br1 Sn3'
_cell_volume   112.97505793
loop_
 _symmetry_equiv_pos_site_id
 _symmetry_equiv_pos_as_xyz
  1  'x, y, z'
loop_
 _atom_type_symbol
  Br
  Sn
loop_
 _atom_site_type_symbol
 _atom_site_label
 _atom_site_symmetry_multiplicity
 _atom_site_fract_x
 _atom_site_fract_y
 _atom_site_fract_z
 _atom_site_occupancy
  Br  Br0  1  0.00000000  0.00000000  0.91607488  1
  Sn  Sn0  1  0.50000000  0.00000000  0.42320553  1
  Sn  Sn1  1  0.50000000  0.50000000  0.91566322  1
  Sn  Sn2  1  0.00000000  0.50000000  0.41172304  1
