# generated using pymatgen
data_497_Al4Th6
_symmetry_space_group_name_H-M   'P4/mbm'
_cell_length_a   8.07781617
_cell_length_b   8.07781617
_cell_length_c   4.27101218
_cell_angle_alpha   90.00000000
_cell_angle_beta   90.00000000
_cell_angle_gamma   90.00000000
_chemical_formula_structural   Al4Th6
_chemical_formula_sum   'Al4 Th6'
_cell_volume   278.68830298
loop_
 _symmetry_equiv_pos_site_id
 _symmetry_equiv_pos_as_xyz
  1  'x, y, z'
loop_
 _atom_type_symbol
  Al
  Th
loop_
 _atom_site_type_symbol
 _atom_site_label
 _atom_site_symmetry_multiplicity
 _atom_site_fract_x
 _atom_site_fract_y
 _atom_site_fract_z
 _atom_site_occupancy
  Al  Al0  1  0.38243591  0.11756409  0.00000000  1
  Al  Al1  1  0.88243591  0.38243591  0.00000000  1
  Al  Al2  1  0.11756409  0.61756409  0.00000000  1
  Al  Al3  1  0.61756409  0.88243591  0.00000000  1
  Th  Th0  1  0.00000000  0.00000000  0.00000000  1
  Th  Th1  1  0.50000000  0.50000000  0.00000000  1
  Th  Th2  1  0.67652546  0.17652546  0.50000000  1
  Th  Th3  1  0.17652546  0.32347454  0.50000000  1
  Th  Th4  1  0.82347454  0.67652546  0.50000000  1
  Th  Th5  1  0.32347454  0.82347454  0.50000000  1
