# generated using pymatgen
data_4981_Ag2Br6
_symmetry_space_group_name_H-M   'I4/mmm'
_cell_length_a   13.38853561
_cell_length_b   13.38853561
_cell_length_c   13.38853561
_cell_angle_alpha   162.74174581
_cell_angle_beta   162.74174581
_cell_angle_gamma   24.50094544
_chemical_formula_structural   Ag2Br6
_chemical_formula_sum   'Ag2 Br6'
_cell_volume   211.18258440
loop_
 _symmetry_equiv_pos_site_id
 _symmetry_equiv_pos_as_xyz
  1  'x, y, z'
loop_
 _atom_type_symbol
  Ag
  Br
loop_
 _atom_site_type_symbol
 _atom_site_label
 _atom_site_symmetry_multiplicity
 _atom_site_fract_x
 _atom_site_fract_y
 _atom_site_fract_z
 _atom_site_occupancy
  Ag  Ag0  1  0.62856275  0.62856275  0.00000000  1
  Ag  Ag1  1  0.37143725  0.37143725  0.00000000  1
  Br  Br0  1  0.50000000  0.00000000  0.50000000  1
  Br  Br1  1  0.00000000  0.50000000  0.50000000  1
  Br  Br2  1  0.25000000  0.75000000  0.50000000  1
  Br  Br3  1  0.75000000  0.25000000  0.50000000  1
  Br  Br4  1  0.87523874  0.87523874  0.00000000  1
  Br  Br5  1  0.12476126  0.12476126  0.00000000  1
