# generated using pymatgen
data_4982_Ga3Nb
_symmetry_space_group_name_H-M   'I4/mmm'
_cell_length_a   3.82057469
_cell_length_b   3.82057469
_cell_length_c   5.15208867
_cell_angle_alpha   111.76368089
_cell_angle_beta   111.76368089
_cell_angle_gamma   90.00000000
_chemical_formula_structural   Ga3Nb
_chemical_formula_sum   'Ga3 Nb1'
_cell_volume   64.03587775
loop_
 _symmetry_equiv_pos_site_id
 _symmetry_equiv_pos_as_xyz
  1  'x, y, z'
loop_
 _atom_type_symbol
  Ga
  Nb
loop_
 _atom_site_type_symbol
 _atom_site_label
 _atom_site_symmetry_multiplicity
 _atom_site_fract_x
 _atom_site_fract_y
 _atom_site_fract_z
 _atom_site_occupancy
  Ga  Ga0  1  0.75000000  0.25000000  0.50000000  1
  Ga  Ga1  1  0.25000000  0.75000000  0.50000000  1
  Ga  Ga2  1  0.50000000  0.50000000  0.00000000  1
  Nb  Nb0  1  0.00000000  0.00000000  0.00000000  1
