# generated using pymatgen
data_4983_Ba4Ca2
_symmetry_space_group_name_H-M   'I4_1/amd'
_cell_length_a   19.94394444
_cell_length_b   19.94394444
_cell_length_c   19.94394444
_cell_angle_alpha   167.98870782
_cell_angle_beta   167.98870782
_cell_angle_gamma   17.01793086
_chemical_formula_structural   Ba4Ca2
_chemical_formula_sum   'Ba4 Ca2'
_cell_volume   343.53371399
loop_
 _symmetry_equiv_pos_site_id
 _symmetry_equiv_pos_as_xyz
  1  'x, y, z'
loop_
 _atom_type_symbol
  Ba
  Ca
loop_
 _atom_site_type_symbol
 _atom_site_label
 _atom_site_symmetry_multiplicity
 _atom_site_fract_x
 _atom_site_fract_y
 _atom_site_fract_z
 _atom_site_occupancy
  Ba  Ba0  1  0.57713184  0.57713184  0.00000000  1
  Ba  Ba1  1  0.67286816  0.17286816  0.50000000  1
  Ba  Ba2  1  0.42286816  0.42286816  0.00000000  1
  Ba  Ba3  1  0.82713184  0.32713184  0.50000000  1
  Ca  Ca0  1  0.00000000  0.00000000  0.00000000  1
  Ca  Ca1  1  0.25000000  0.75000000  0.50000000  1
