# generated using pymatgen
data_4991_Cu2W
_symmetry_space_group_name_H-M   'Immm'
_cell_length_a   3.75263798
_cell_length_b   8.27134199
_cell_length_c   2.58513383
_cell_angle_alpha   90.00000000
_cell_angle_beta   90.00000000
_cell_angle_gamma   90.00000000
_chemical_formula_structural   Cu2W
_chemical_formula_sum   'Cu4 W2'
_cell_volume   80.24087917
loop_
 _symmetry_equiv_pos_site_id
 _symmetry_equiv_pos_as_xyz
  1  'x, y, z'
loop_
 _atom_type_symbol
  Cu
  W
loop_
 _atom_site_type_symbol
 _atom_site_label
 _atom_site_symmetry_multiplicity
 _atom_site_fract_x
 _atom_site_fract_y
 _atom_site_fract_z
 _atom_site_occupancy
  Cu  Cu0  1  0.00053862  0.32733615  0.00000000  1
  Cu  Cu1  1  0.99946138  0.67266385  0.00000000  1
  Cu  Cu2  1  0.50053862  0.17266385  0.50000000  1
  Cu  Cu3  1  0.49946138  0.82733615  0.50000000  1
  W  W0  1  0.00000000  0.00000000  0.00000000  1
  W  W1  1  0.50000000  0.50000000  0.50000000  1
