# generated using pymatgen
data_4992_Ag4Al2
_symmetry_space_group_name_H-M   'Cmcm'
_cell_length_a   7.59784810
_cell_length_b   7.59784810
_cell_length_c   4.65285547
_cell_angle_alpha   90.00000000
_cell_angle_beta   90.00000000
_cell_angle_gamma   157.65457895
_chemical_formula_structural   Ag4Al2
_chemical_formula_sum   'Ag4 Al2'
_cell_volume   102.11766858
loop_
 _symmetry_equiv_pos_site_id
 _symmetry_equiv_pos_as_xyz
  1  'x, y, z'
loop_
 _atom_type_symbol
  Ag
  Al
loop_
 _atom_site_type_symbol
 _atom_site_label
 _atom_site_symmetry_multiplicity
 _atom_site_fract_x
 _atom_site_fract_y
 _atom_site_fract_z
 _atom_site_occupancy
  Ag  Ag0  1  0.99833535  0.00166465  0.00000000  1
  Ag  Ag1  1  0.66667429  0.33332571  0.00000000  1
  Ag  Ag2  1  0.44610910  0.55389090  0.50000000  1
  Ag  Ag3  1  0.77777015  0.22222985  0.50000000  1
  Al  Al0  1  0.33478476  0.66521524  0.00000000  1
  Al  Al1  1  0.10965969  0.89034031  0.50000000  1
