# generated using pymatgen
data_4994_Ba2Ir2
_symmetry_space_group_name_H-M   'Cmcm'
_cell_length_a   6.26265387
_cell_length_b   6.26265387
_cell_length_c   5.72012435
_cell_angle_alpha   90.00000000
_cell_angle_beta   90.00000000
_cell_angle_gamma   150.52291015
_chemical_formula_structural   Ba2Ir2
_chemical_formula_sum   'Ba2 Ir2'
_cell_volume   110.39617668
loop_
 _symmetry_equiv_pos_site_id
 _symmetry_equiv_pos_as_xyz
  1  'x, y, z'
loop_
 _atom_type_symbol
  Ba
  Ir
loop_
 _atom_site_type_symbol
 _atom_site_label
 _atom_site_symmetry_multiplicity
 _atom_site_fract_x
 _atom_site_fract_y
 _atom_site_fract_z
 _atom_site_occupancy
  Ba  Ba0  1  0.62897852  0.37102148  0.75000000  1
  Ba  Ba1  1  0.37102148  0.62897852  0.25000000  1
  Ir  Ir0  1  0.89371563  0.10628437  0.75000000  1
  Ir  Ir1  1  0.10628437  0.89371563  0.25000000  1
