# generated using pymatgen
data_4995_Au2Sb2
_symmetry_space_group_name_H-M   'Cmcm'
_cell_length_a   5.81311258
_cell_length_b   5.81311258
_cell_length_c   4.11360415
_cell_angle_alpha   90.00000000
_cell_angle_beta   90.00000000
_cell_angle_gamma   138.66132737
_chemical_formula_structural   Au2Sb2
_chemical_formula_sum   'Au2 Sb2'
_cell_volume   91.81601462
loop_
 _symmetry_equiv_pos_site_id
 _symmetry_equiv_pos_as_xyz
  1  'x, y, z'
loop_
 _atom_type_symbol
  Au
  Sb
loop_
 _atom_site_type_symbol
 _atom_site_label
 _atom_site_symmetry_multiplicity
 _atom_site_fract_x
 _atom_site_fract_y
 _atom_site_fract_z
 _atom_site_occupancy
  Au  Au0  1  0.89936219  0.10063781  0.75000000  1
  Au  Au1  1  0.10063781  0.89936219  0.25000000  1
  Sb  Sb0  1  0.64003221  0.35996779  0.75000000  1
  Sb  Sb1  1  0.35996779  0.64003221  0.25000000  1
