# generated using pymatgen
data_4996_Al2In2
_symmetry_space_group_name_H-M   'P4/nmm'
_cell_length_a   4.00515931
_cell_length_b   4.00515931
_cell_length_c   5.87272789
_cell_angle_alpha   90.00000000
_cell_angle_beta   90.00000000
_cell_angle_gamma   90.00000000
_chemical_formula_structural   Al2In2
_chemical_formula_sum   'Al2 In2'
_cell_volume   94.20619635
loop_
 _symmetry_equiv_pos_site_id
 _symmetry_equiv_pos_as_xyz
  1  'x, y, z'
loop_
 _atom_type_symbol
  Al
  In
loop_
 _atom_site_type_symbol
 _atom_site_label
 _atom_site_symmetry_multiplicity
 _atom_site_fract_x
 _atom_site_fract_y
 _atom_site_fract_z
 _atom_site_occupancy
  Al  Al0  1  0.25000000  0.75000000  0.00000000  1
  Al  Al1  1  0.75000000  0.25000000  0.00000000  1
  In  In0  1  0.25000000  0.25000000  0.38172016  1
  In  In1  1  0.75000000  0.75000000  0.61827984  1
