# generated using pymatgen
data_5000_Ga5Sr
_symmetry_space_group_name_H-M   'Cmmm'
_cell_length_a   6.71798097
_cell_length_b   6.71798097
_cell_length_c   4.53648045
_cell_angle_alpha   90.00000000
_cell_angle_beta   90.00000000
_cell_angle_gamma   140.84860129
_chemical_formula_structural   Ga5Sr
_chemical_formula_sum   'Ga5 Sr1'
_cell_volume   129.26522655
loop_
 _symmetry_equiv_pos_site_id
 _symmetry_equiv_pos_as_xyz
  1  'x, y, z'
loop_
 _atom_type_symbol
  Ga
  Sr
loop_
 _atom_site_type_symbol
 _atom_site_label
 _atom_site_symmetry_multiplicity
 _atom_site_fract_x
 _atom_site_fract_y
 _atom_site_fract_z
 _atom_site_occupancy
  Ga  Ga0  1  0.79288645  0.20711355  0.50000000  1
  Ga  Ga1  1  0.65768499  0.34231501  0.00000000  1
  Ga  Ga2  1  0.47177973  0.52822027  0.50000000  1
  Ga  Ga3  1  0.28695674  0.71304326  0.00000000  1
  Ga  Ga4  1  0.15169494  0.84830506  0.50000000  1
  Sr  Sr0  1  0.97233047  0.02766953  0.00000000  1
