# generated using pymatgen
data_500_CuGe2
_symmetry_space_group_name_H-M   'I4/mmm'
_cell_length_a   6.30669731
_cell_length_b   6.30669731
_cell_length_c   6.30669731
_cell_angle_alpha   153.57578948
_cell_angle_beta   153.57578948
_cell_angle_gamma   37.71648094
_chemical_formula_structural   CuGe2
_chemical_formula_sum   'Cu1 Ge2'
_cell_volume   49.60116768
loop_
 _symmetry_equiv_pos_site_id
 _symmetry_equiv_pos_as_xyz
  1  'x, y, z'
loop_
 _atom_type_symbol
  Cu
  Ge
loop_
 _atom_site_type_symbol
 _atom_site_label
 _atom_site_symmetry_multiplicity
 _atom_site_fract_x
 _atom_site_fract_y
 _atom_site_fract_z
 _atom_site_occupancy
  Cu  Cu0  1  0.50000000  0.50000000  0.00000000  1
  Ge  Ge0  1  0.85426323  0.85426323  0.00000000  1
  Ge  Ge1  1  0.14573677  0.14573677  0.00000000  1
