# generated using pymatgen
data_507_Ba2Pd4
_symmetry_space_group_name_H-M   'Cmcm'
_cell_length_a   8.61353234
_cell_length_b   8.61353234
_cell_length_c   4.22721609
_cell_angle_alpha   90.00000000
_cell_angle_beta   90.00000000
_cell_angle_gamma   151.20195692
_chemical_formula_structural   Ba2Pd4
_chemical_formula_sum   'Ba2 Pd4'
_cell_volume   151.08281879
loop_
 _symmetry_equiv_pos_site_id
 _symmetry_equiv_pos_as_xyz
  1  'x, y, z'
loop_
 _atom_type_symbol
  Ba
  Pd
loop_
 _atom_site_type_symbol
 _atom_site_label
 _atom_site_symmetry_multiplicity
 _atom_site_fract_x
 _atom_site_fract_y
 _atom_site_fract_z
 _atom_site_occupancy
  Ba  Ba0  1  0.89604972  0.10395028  0.25000000  1
  Ba  Ba1  1  0.10395028  0.89604972  0.75000000  1
  Pd  Pd0  1  0.55193058  0.44806942  0.25000000  1
  Pd  Pd1  1  0.24783669  0.75216331  0.25000000  1
  Pd  Pd2  1  0.44806942  0.55193058  0.75000000  1
  Pd  Pd3  1  0.75216331  0.24783669  0.75000000  1
