# generated using pymatgen
data_50_Ir16Pd8
_symmetry_space_group_name_H-M   'Fd -3 m'
_cell_length_a   8.10480071
_cell_length_b   8.10480071
_cell_length_c   8.10480071
_cell_angle_alpha   60.00000000
_cell_angle_beta   60.00000000
_cell_angle_gamma   60.00000000
_chemical_formula_structural   Ir16Pd8
_chemical_formula_sum   'Ir16 Pd8'
_cell_volume   376.45409254
loop_
 _symmetry_equiv_pos_site_id
 _symmetry_equiv_pos_as_xyz
  1  'x, y, z'
loop_
 _atom_type_symbol
  Ir
  Pd
loop_
 _atom_site_type_symbol
 _atom_site_label
 _atom_site_symmetry_multiplicity
 _atom_site_fract_x
 _atom_site_fract_y
 _atom_site_fract_z
 _atom_site_occupancy
  Ir  Ir0  1  0.50000000  0.00000000  0.50000000  1
  Ir  Ir1  1  0.50000000  0.00000000  0.00000000  1
  Ir  Ir2  1  0.00000000  0.00000000  0.50000000  1
  Ir  Ir3  1  0.50000000  0.50000000  0.50000000  1
  Ir  Ir4  1  0.32033026  0.82033026  0.92966974  1
  Ir  Ir5  1  0.92966974  0.82033026  0.32033026  1
  Ir  Ir6  1  0.92966974  0.82033026  0.92966974  1
  Ir  Ir7  1  0.32033026  0.42966974  0.32033026  1
  Ir  Ir8  1  0.32033026  0.42966974  0.92966974  1
  Ir  Ir9  1  0.92966974  0.42966974  0.32033026  1
  Ir  Ir10  1  0.67966974  0.17966974  0.07033026  1
  Ir  Ir11  1  0.07033026  0.17966974  0.67966974  1
  Ir  Ir12  1  0.07033026  0.17966974  0.07033026  1
  Ir  Ir13  1  0.67966974  0.57033026  0.67966974  1
  Ir  Ir14  1  0.67966974  0.57033026  0.07033026  1
  Ir  Ir15  1  0.07033026  0.57033026  0.67966974  1
  Pd  Pd0  1  0.71672294  0.84983117  0.71672294  1
  Pd  Pd1  1  0.34983117  0.21672294  0.71672294  1
  Pd  Pd2  1  0.71672294  0.21672294  0.34983117  1
  Pd  Pd3  1  0.71672294  0.21672294  0.71672294  1
  Pd  Pd4  1  0.28327706  0.15016883  0.28327706  1
  Pd  Pd5  1  0.65016883  0.78327706  0.28327706  1
  Pd  Pd6  1  0.28327706  0.78327706  0.65016883  1
  Pd  Pd7  1  0.28327706  0.78327706  0.28327706  1
