# generated using pymatgen
data_515_Ni4U6
_symmetry_space_group_name_H-M   'R -3 c'
_cell_length_a   5.65403757
_cell_length_b   5.65403770
_cell_length_c   7.60980865
_cell_angle_alpha   111.80795199
_cell_angle_beta   68.19205194
_cell_angle_gamma   119.99999342
_chemical_formula_structural   Ni4U6
_chemical_formula_sum   'Ni4 U6'
_cell_volume   190.31078324
loop_
 _symmetry_equiv_pos_site_id
 _symmetry_equiv_pos_as_xyz
  1  'x, y, z'
loop_
 _atom_type_symbol
  Ni
  U
loop_
 _atom_site_type_symbol
 _atom_site_label
 _atom_site_symmetry_multiplicity
 _atom_site_fract_x
 _atom_site_fract_y
 _atom_site_fract_z
 _atom_site_occupancy
  Ni  Ni0  1  0.30787109  0.69212975  0.07638758  1
  Ni  Ni1  1  0.19212924  0.80787164  0.42361315  1
  Ni  Ni2  1  0.80787165  0.19212898  0.57638683  1
  Ni  Ni3  1  0.69212980  0.30787087  0.92361240  1
  U  U0  1  0.25000052  0.18472237  0.25000036  1
  U  U1  1  0.81527834  0.31527920  0.25000036  1
  U  U2  1  0.68472346  0.75000069  0.25000036  1
  U  U3  1  0.75000038  0.81527825  0.74999961  1
  U  U4  1  0.31527694  0.25000042  0.75000109  1
  U  U5  1  0.18472206  0.68472191  0.75000109  1
