# generated using pymatgen
data_516_Ba2Cu4
_symmetry_space_group_name_H-M   'I4/mcm'
_cell_length_a   6.19950061
_cell_length_b   6.19950061
_cell_length_c   6.19950061
_cell_angle_alpha   128.76134426
_cell_angle_beta   128.76134426
_cell_angle_gamma   75.39488514
_chemical_formula_structural   Ba2Cu4
_chemical_formula_sum   'Ba2 Cu4'
_cell_volume   140.99232092
loop_
 _symmetry_equiv_pos_site_id
 _symmetry_equiv_pos_as_xyz
  1  'x, y, z'
loop_
 _atom_type_symbol
  Ba
  Cu
loop_
 _atom_site_type_symbol
 _atom_site_label
 _atom_site_symmetry_multiplicity
 _atom_site_fract_x
 _atom_site_fract_y
 _atom_site_fract_z
 _atom_site_occupancy
  Ba  Ba0  1  0.75000000  0.75000000  0.00000000  1
  Ba  Ba1  1  0.25000000  0.25000000  0.00000000  1
  Cu  Cu0  1  0.34124661  0.15875339  0.50000000  1
  Cu  Cu1  1  0.65875339  0.84124661  0.50000000  1
  Cu  Cu2  1  0.15875339  0.65875339  0.81750677  1
  Cu  Cu3  1  0.84124661  0.34124661  0.18249323  1
