# generated using pymatgen
data_518_CaPb5
_symmetry_space_group_name_H-M   'Amm2'
_cell_length_a   9.60989184
_cell_length_b   9.60989184
_cell_length_c   5.92923859
_cell_angle_alpha   90.00000000
_cell_angle_beta   90.00000000
_cell_angle_gamma   158.15183356
_chemical_formula_structural   CaPb5
_chemical_formula_sum   'Ca1 Pb5'
_cell_volume   203.77547066
loop_
 _symmetry_equiv_pos_site_id
 _symmetry_equiv_pos_as_xyz
  1  'x, y, z'
loop_
 _atom_type_symbol
  Ca
  Pb
loop_
 _atom_site_type_symbol
 _atom_site_label
 _atom_site_symmetry_multiplicity
 _atom_site_fract_x
 _atom_site_fract_y
 _atom_site_fract_z
 _atom_site_occupancy
  Ca  Ca0  1  0.99994265  0.00005735  0.00000000  1
  Pb  Pb0  1  0.33328760  0.66671240  0.00000000  1
  Pb  Pb1  1  0.66666738  0.33333262  0.00000000  1
  Pb  Pb2  1  0.44452724  0.55547276  0.50000000  1
  Pb  Pb3  1  0.77778126  0.22221874  0.50000000  1
  Pb  Pb4  1  0.11112721  0.88887279  0.50000000  1
