# generated using pymatgen
data_524_In2Sn4
_symmetry_space_group_name_H-M   'C2/m'
_cell_length_a   6.57376320
_cell_length_b   6.57376320
_cell_length_c   8.15397831
_cell_angle_alpha   74.14139067
_cell_angle_beta   74.14139067
_cell_angle_gamma   29.33689895
_chemical_formula_structural   In2Sn4
_chemical_formula_sum   'In2 Sn4'
_cell_volume   165.61039954
loop_
 _symmetry_equiv_pos_site_id
 _symmetry_equiv_pos_as_xyz
  1  'x, y, z'
loop_
 _atom_type_symbol
  In
  Sn
loop_
 _atom_site_type_symbol
 _atom_site_label
 _atom_site_symmetry_multiplicity
 _atom_site_fract_x
 _atom_site_fract_y
 _atom_site_fract_z
 _atom_site_occupancy
  In  In0  1  0.99955165  0.99955165  0.00006177  1
  In  In1  1  0.61155946  0.61155946  0.27771601  1
  Sn  Sn0  1  0.33298253  0.33298253  0.33767648  1
  Sn  Sn1  1  0.66863765  0.66863765  0.66451636  1
  Sn  Sn2  1  0.94247347  0.94247347  0.61326142  1
  Sn  Sn3  1  0.27812858  0.27812858  0.94010130  1
