# generated using pymatgen
data_525_MnBr8
_symmetry_space_group_name_H-M   'I4/mmm'
_cell_length_a   7.08399014
_cell_length_b   7.08399014
_cell_length_c   7.08399014
_cell_angle_alpha   102.14772202
_cell_angle_beta   102.14772202
_cell_angle_gamma   125.38967101
_chemical_formula_structural   MnBr8
_chemical_formula_sum   'Br8 Mn1'
_cell_volume   257.51925063
loop_
 _symmetry_equiv_pos_site_id
 _symmetry_equiv_pos_as_xyz
  1  'x, y, z'
loop_
 _atom_type_symbol
  Br
  Mn
loop_
 _atom_site_type_symbol
 _atom_site_label
 _atom_site_symmetry_multiplicity
 _atom_site_fract_x
 _atom_site_fract_y
 _atom_site_fract_z
 _atom_site_occupancy
  Br  Br0  1  0.33725516  0.66274484  0.00000000  1
  Br  Br1  1  0.66274484  0.33725516  0.00000000  1
  Br  Br2  1  0.00000000  0.26590937  0.26590937  1
  Br  Br3  1  0.66274484  0.66274484  0.32548968  1
  Br  Br4  1  0.26590937  1.00000000  0.26590937  1
  Br  Br5  1  0.33725516  0.33725516  0.67451032  1
  Br  Br6  1  0.00000000  0.73409063  0.73409063  1
  Br  Br7  1  0.73409063  1.00000000  0.73409063  1
  Mn  Mn0  1  0.00000000  0.00000000  0.00000000  1
