# generated using pymatgen
data_527_Ca3Pb
_symmetry_space_group_name_H-M   'Immm'
_cell_length_a   7.08297227
_cell_length_b   7.08297227
_cell_length_c   7.08297227
_cell_angle_alpha   147.01449983
_cell_angle_beta   131.64176968
_cell_angle_gamma   59.78278733
_chemical_formula_structural   Ca3Pb
_chemical_formula_sum   'Ca3 Pb1'
_cell_volume   143.29058150
loop_
 _symmetry_equiv_pos_site_id
 _symmetry_equiv_pos_as_xyz
  1  'x, y, z'
loop_
 _atom_type_symbol
  Ca
  Pb
loop_
 _atom_site_type_symbol
 _atom_site_label
 _atom_site_symmetry_multiplicity
 _atom_site_fract_x
 _atom_site_fract_y
 _atom_site_fract_z
 _atom_site_occupancy
  Ca  Ca0  1  0.12180667  0.03860876  0.08319792  1
  Ca  Ca1  1  0.54458916  0.46139124  0.08319792  1
  Ca  Ca2  1  0.83343206  0.25000000  0.58343206  1
  Pb  Pb0  1  0.33350544  0.75000000  0.58350544  1
