# generated using pymatgen
data_52_Ca4Ta2
_symmetry_space_group_name_H-M   'I4/mcm'
_cell_length_a   6.49391067
_cell_length_b   6.49391067
_cell_length_c   6.49391067
_cell_angle_alpha   99.37774163
_cell_angle_beta   99.37774163
_cell_angle_gamma   132.38543390
_chemical_formula_structural   Ca4Ta2
_chemical_formula_sum   'Ca4 Ta2'
_cell_volume   185.06383458
loop_
 _symmetry_equiv_pos_site_id
 _symmetry_equiv_pos_as_xyz
  1  'x, y, z'
loop_
 _atom_type_symbol
  Ca
  Ta
loop_
 _atom_site_type_symbol
 _atom_site_label
 _atom_site_symmetry_multiplicity
 _atom_site_fract_x
 _atom_site_fract_y
 _atom_site_fract_z
 _atom_site_occupancy
  Ca  Ca0  1  0.33671955  0.16328045  0.50000000  1
  Ca  Ca1  1  0.66328045  0.83671955  0.50000000  1
  Ca  Ca2  1  0.16328045  0.66328045  0.82656090  1
  Ca  Ca3  1  0.83671955  0.33671955  0.17343910  1
  Ta  Ta0  1  0.75000000  0.75000000  0.00000000  1
  Ta  Ta1  1  0.25000000  0.25000000  0.00000000  1
