# generated using pymatgen
data_533_Ga12P17
_symmetry_space_group_name_H-M   'I-43m'
_cell_length_a   8.88921952
_cell_length_b   8.88921952
_cell_length_c   8.88921952
_cell_angle_alpha   109.47122063
_cell_angle_beta   109.47122063
_cell_angle_gamma   109.47122063
_chemical_formula_structural   Ga12P17
_chemical_formula_sum   'Ga12 P17'
_cell_volume   540.71572814
loop_
 _symmetry_equiv_pos_site_id
 _symmetry_equiv_pos_as_xyz
  1  'x, y, z'
loop_
 _atom_type_symbol
  Ga
  P
loop_
 _atom_site_type_symbol
 _atom_site_label
 _atom_site_symmetry_multiplicity
 _atom_site_fract_x
 _atom_site_fract_y
 _atom_site_fract_z
 _atom_site_occupancy
  Ga  Ga0  1  0.24970766  0.00000000  0.49767285  1
  Ga  Ga1  1  0.49767285  0.00000000  0.24970766  1
  Ga  Ga2  1  0.50232715  0.75203481  0.50232715  1
  Ga  Ga3  1  0.75029234  0.24796519  0.75029234  1
  Ga  Ga4  1  1.00000000  0.24970766  0.49767285  1
  Ga  Ga5  1  1.00000000  0.49767285  0.24970766  1
  Ga  Ga6  1  0.24796519  0.75029234  0.75029234  1
  Ga  Ga7  1  0.75203481  0.50232715  0.50232715  1
  Ga  Ga8  1  0.75029234  0.75029234  0.24796519  1
  Ga  Ga9  1  0.50232715  0.50232715  0.75203481  1
  Ga  Ga10  1  0.24970766  0.49767285  0.00000000  1
  Ga  Ga11  1  0.49767285  0.24970766  0.00000000  1
  P  P0  1  0.76115711  0.00000000  0.51069143  1
  P  P1  1  0.51069143  0.00000000  0.76115711  1
  P  P2  1  0.48930857  0.25046568  0.48930857  1
  P  P3  1  0.23884289  0.74953432  0.23884289  1
  P  P4  1  1.00000000  0.76115711  0.51069143  1
  P  P5  1  0.00000000  0.51069143  0.76115711  1
  P  P6  1  0.74953432  0.23884289  0.23884289  1
  P  P7  1  0.25046568  0.48930857  0.48930857  1
  P  P8  1  0.23884289  0.23884289  0.74953432  1
  P  P9  1  0.48930857  0.48930857  0.25046568  1
  P  P10  1  0.76115711  0.51069143  0.00000000  1
  P  P11  1  0.51069143  0.76115711  0.00000000  1
  P  P12  1  1.00000000  0.00000000  0.71286143  1
  P  P13  1  0.71286143  0.00000000  0.00000000  1
  P  P14  1  0.28713857  0.28713857  0.28713857  1
  P  P15  1  1.00000000  0.71286143  0.00000000  1
  P  P16  1  0.00000000  0.00000000  0.00000000  1
