# generated using pymatgen
data_538_As3Br
_symmetry_space_group_name_H-M   'P4mm'
_cell_length_a   3.81026540
_cell_length_b   3.86073096
_cell_length_c   6.80223959
_cell_angle_alpha   90.00000000
_cell_angle_beta   90.00000000
_cell_angle_gamma   90.00000000
_chemical_formula_structural   As3Br
_chemical_formula_sum   'As3 Br1'
_cell_volume   100.06373054
loop_
 _symmetry_equiv_pos_site_id
 _symmetry_equiv_pos_as_xyz
  1  'x, y, z'
loop_
 _atom_type_symbol
  As
  Br
loop_
 _atom_site_type_symbol
 _atom_site_label
 _atom_site_symmetry_multiplicity
 _atom_site_fract_x
 _atom_site_fract_y
 _atom_site_fract_z
 _atom_site_occupancy
  As  As0  1  0.00000000  0.00000000  0.86539821  1
  As  As1  1  0.50000000  0.00000000  0.57968489  1
  As  As2  1  0.50000000  0.50000000  0.86381285  1
  Br  Br0  1  0.00000000  0.50000000  0.35777071  1
