# generated using pymatgen
data_53_NiRh
_symmetry_space_group_name_H-M   'P-6m2'
_cell_length_a   2.65745400
_cell_length_b   2.65744995
_cell_length_c   4.18136100
_cell_angle_alpha   90.00000000
_cell_angle_beta   90.00000000
_cell_angle_gamma   120.00005038
_chemical_formula_structural   NiRh
_chemical_formula_sum   'Ni1 Rh1'
_cell_volume   25.57283788
loop_
 _symmetry_equiv_pos_site_id
 _symmetry_equiv_pos_as_xyz
  1  'x, y, z'
loop_
 _atom_type_symbol
  Ni
  Rh
loop_
 _atom_site_type_symbol
 _atom_site_label
 _atom_site_symmetry_multiplicity
 _atom_site_fract_x
 _atom_site_fract_y
 _atom_site_fract_z
 _atom_site_occupancy
  Ni  Ni0  1  0.66666799  0.33333367  0.74999974  1
  Rh  Rh0  1  0.33333367  0.66666735  0.24999991  1
