# generated using pymatgen
data_542_Fe12Mo17
_symmetry_space_group_name_H-M   'I-43m'
_cell_length_a   8.01123984
_cell_length_b   8.01123984
_cell_length_c   8.01123984
_cell_angle_alpha   109.47122063
_cell_angle_beta   109.47122063
_cell_angle_gamma   109.47122063
_chemical_formula_structural   Fe12Mo17
_chemical_formula_sum   'Fe12 Mo17'
_cell_volume   395.80138649
loop_
 _symmetry_equiv_pos_site_id
 _symmetry_equiv_pos_as_xyz
  1  'x, y, z'
loop_
 _atom_type_symbol
  Fe
  Mo
loop_
 _atom_site_type_symbol
 _atom_site_label
 _atom_site_symmetry_multiplicity
 _atom_site_fract_x
 _atom_site_fract_y
 _atom_site_fract_z
 _atom_site_occupancy
  Fe  Fe0  1  0.18511474  0.82131018  0.18511474  1
  Fe  Fe1  1  0.36380456  0.17868982  0.36380456  1
  Fe  Fe2  1  0.81488526  0.00000000  0.63619544  1
  Fe  Fe3  1  0.63619544  0.00000000  0.81488526  1
  Fe  Fe4  1  0.81488526  0.63619544  0.00000000  1
  Fe  Fe5  1  0.63619544  0.81488526  0.00000000  1
  Fe  Fe6  1  0.36380456  0.36380456  0.17868982  1
  Fe  Fe7  1  0.18511474  0.18511474  0.82131018  1
  Fe  Fe8  1  0.00000000  0.63619544  0.81488526  1
  Fe  Fe9  1  0.00000000  0.81488526  0.63619544  1
  Fe  Fe10  1  0.82131018  0.18511474  0.18511474  1
  Fe  Fe11  1  0.17868982  0.36380456  0.36380456  1
  Mo  Mo0  1  0.68334395  0.29280785  0.68334395  1
  Mo  Mo1  1  0.39053609  0.70719215  0.39053609  1
  Mo  Mo2  1  0.31665605  0.00000000  0.60946391  1
  Mo  Mo3  1  0.60946391  0.00000000  0.31665605  1
  Mo  Mo4  1  0.31665605  0.60946391  0.00000000  1
  Mo  Mo5  1  0.60946391  0.31665605  0.00000000  1
  Mo  Mo6  1  0.39053609  0.39053609  0.70719215  1
  Mo  Mo7  1  0.68334395  0.68334395  0.29280785  1
  Mo  Mo8  1  0.00000000  0.60946391  0.31665605  1
  Mo  Mo9  1  0.00000000  0.31665605  0.60946391  1
  Mo  Mo10  1  0.29280785  0.68334395  0.68334395  1
  Mo  Mo11  1  0.70719215  0.39053609  0.39053609  1
  Mo  Mo12  1  0.00000000  0.34999321  0.00000000  1
  Mo  Mo13  1  0.65000679  0.65000679  0.65000679  1
  Mo  Mo14  1  0.00000000  0.00000000  0.34999321  1
  Mo  Mo15  1  0.34999321  0.00000000  0.00000000  1
  Mo  Mo16  1  0.00000000  0.00000000  0.00000000  1
