# generated using pymatgen
data_551_Ca12P12
_symmetry_space_group_name_H-M   'Pbcm'
_cell_length_a   6.55038910
_cell_length_b   8.71473863
_cell_length_c   9.44253953
_cell_angle_alpha   90.00000000
_cell_angle_beta   90.00000000
_cell_angle_gamma   90.00000000
_chemical_formula_structural   Ca12P12
_chemical_formula_sum   'Ca12 P12'
_cell_volume   539.02669800
loop_
 _symmetry_equiv_pos_site_id
 _symmetry_equiv_pos_as_xyz
  1  'x, y, z'
loop_
 _atom_type_symbol
  Ca
  P
loop_
 _atom_site_type_symbol
 _atom_site_label
 _atom_site_symmetry_multiplicity
 _atom_site_fract_x
 _atom_site_fract_y
 _atom_site_fract_z
 _atom_site_occupancy
  Ca  Ca0  1  0.25000000  0.12271482  0.21606626  1
  Ca  Ca1  1  0.75000000  0.87728518  0.78393374  1
  Ca  Ca2  1  0.25000000  0.62271482  0.78393374  1
  Ca  Ca3  1  0.75000000  0.37728518  0.21606626  1
  Ca  Ca4  1  0.25000000  0.50889132  0.39173226  1
  Ca  Ca5  1  0.75000000  0.49110868  0.60826774  1
  Ca  Ca6  1  0.25000000  0.00889132  0.60826774  1
  Ca  Ca7  1  0.75000000  0.99110868  0.39173226  1
  Ca  Ca8  1  0.00000000  0.75000000  0.09545719  1
  Ca  Ca9  1  0.50000000  0.25000000  0.90454281  1
  Ca  Ca10  1  0.00000000  0.25000000  0.90454281  1
  Ca  Ca11  1  0.50000000  0.75000000  0.09545719  1
  P  P0  1  0.25000000  0.43871407  0.09203768  1
  P  P1  1  0.75000000  0.56128593  0.90796232  1
  P  P2  1  0.25000000  0.93871407  0.90796232  1
  P  P3  1  0.75000000  0.06128593  0.09203768  1
  P  P4  1  0.25000000  0.81953692  0.35462445  1
  P  P5  1  0.75000000  0.18046308  0.64537555  1
  P  P6  1  0.25000000  0.31953692  0.64537555  1
  P  P7  1  0.75000000  0.68046308  0.35462445  1
  P  P8  1  0.00000000  0.75000000  0.53046555  1
  P  P9  1  0.50000000  0.25000000  0.46953445  1
  P  P10  1  0.00000000  0.25000000  0.46953445  1
  P  P11  1  0.50000000  0.75000000  0.53046555  1
