# generated using pymatgen
data_552_Fe17Pb12
_symmetry_space_group_name_H-M   'I-43m'
_cell_length_a   8.42690238
_cell_length_b   8.42690238
_cell_length_c   8.42690238
_cell_angle_alpha   109.47122063
_cell_angle_beta   109.47122063
_cell_angle_gamma   109.47122063
_chemical_formula_structural   Fe17Pb12
_chemical_formula_sum   'Fe17 Pb12'
_cell_volume   460.66158627
loop_
 _symmetry_equiv_pos_site_id
 _symmetry_equiv_pos_as_xyz
  1  'x, y, z'
loop_
 _atom_type_symbol
  Fe
  Pb
loop_
 _atom_site_type_symbol
 _atom_site_label
 _atom_site_symmetry_multiplicity
 _atom_site_fract_x
 _atom_site_fract_y
 _atom_site_fract_z
 _atom_site_occupancy
  Fe  Fe0  1  0.73053104  0.28457871  0.73053104  1
  Fe  Fe1  1  0.44595233  0.71542129  0.44595233  1
  Fe  Fe2  1  0.26946896  0.00000000  0.55404767  1
  Fe  Fe3  1  0.55404767  0.00000000  0.26946896  1
  Fe  Fe4  1  0.26946896  0.55404767  0.00000000  1
  Fe  Fe5  1  0.55404767  0.26946896  0.00000000  1
  Fe  Fe6  1  0.44595233  0.44595233  0.71542129  1
  Fe  Fe7  1  0.73053104  0.73053104  0.28457871  1
  Fe  Fe8  1  1.00000000  0.55404767  0.26946896  1
  Fe  Fe9  1  1.00000000  0.26946896  0.55404767  1
  Fe  Fe10  1  0.28457871  0.73053104  0.73053104  1
  Fe  Fe11  1  0.71542129  0.44595233  0.44595233  1
  Fe  Fe12  1  1.00000000  0.35136292  0.00000000  1
  Fe  Fe13  1  0.64863708  0.64863708  0.64863708  1
  Fe  Fe14  1  1.00000000  0.00000000  0.35136292  1
  Fe  Fe15  1  0.35136292  0.00000000  0.00000000  1
  Fe  Fe16  1  0.00000000  0.00000000  0.00000000  1
  Pb  Pb0  1  0.22495632  0.79462009  0.22495632  1
  Pb  Pb1  1  0.43033623  0.20537991  0.43033623  1
  Pb  Pb2  1  0.77504368  0.00000000  0.56966377  1
  Pb  Pb3  1  0.56966377  0.00000000  0.77504368  1
  Pb  Pb4  1  0.77504368  0.56966377  0.00000000  1
  Pb  Pb5  1  0.56966377  0.77504368  0.00000000  1
  Pb  Pb6  1  0.43033623  0.43033623  0.20537991  1
  Pb  Pb7  1  0.22495632  0.22495632  0.79462009  1
  Pb  Pb8  1  0.00000000  0.56966377  0.77504368  1
  Pb  Pb9  1  0.00000000  0.77504368  0.56966377  1
  Pb  Pb10  1  0.79462009  0.22495632  0.22495632  1
  Pb  Pb11  1  0.20537991  0.43033623  0.43033623  1
