# generated using pymatgen
data_555_In2Sn4
_symmetry_space_group_name_H-M   'C2/m'
_cell_length_a   6.55784534
_cell_length_b   6.55784534
_cell_length_c   8.13546512
_cell_angle_alpha   74.02804955
_cell_angle_beta   74.02804955
_cell_angle_gamma   29.62941225
_chemical_formula_structural   In2Sn4
_chemical_formula_sum   'In2 Sn4'
_cell_volume   165.81636296
loop_
 _symmetry_equiv_pos_site_id
 _symmetry_equiv_pos_as_xyz
  1  'x, y, z'
loop_
 _atom_type_symbol
  In
  Sn
loop_
 _atom_site_type_symbol
 _atom_site_label
 _atom_site_symmetry_multiplicity
 _atom_site_fract_x
 _atom_site_fract_y
 _atom_site_fract_z
 _atom_site_occupancy
  In  In0  1  0.66629395  0.66629395  0.66697320  1
  In  In1  1  0.61148383  0.61148383  0.27747125  1
  Sn  Sn0  1  0.99886262  0.99886262  0.00105286  1
  Sn  Sn1  1  0.33515966  0.33515966  0.33078792  1
  Sn  Sn2  1  0.94261811  0.94261811  0.61365652  1
  Sn  Sn3  1  0.27891516  0.27891516  0.94339158  1
