# generated using pymatgen
data_556_Ir4Ta2
_symmetry_space_group_name_H-M   'Pnnm'
_cell_length_a   2.81878881
_cell_length_b   7.55022841
_cell_length_c   4.40895428
_cell_angle_alpha   90.00000000
_cell_angle_beta   90.00000000
_cell_angle_gamma   90.00000000
_chemical_formula_structural   Ir4Ta2
_chemical_formula_sum   'Ir4 Ta2'
_cell_volume   93.83356662
loop_
 _symmetry_equiv_pos_site_id
 _symmetry_equiv_pos_as_xyz
  1  'x, y, z'
loop_
 _atom_type_symbol
  Ir
  Ta
loop_
 _atom_site_type_symbol
 _atom_site_label
 _atom_site_symmetry_multiplicity
 _atom_site_fract_x
 _atom_site_fract_y
 _atom_site_fract_z
 _atom_site_occupancy
  Ir  Ir0  1  0.22222560  0.33524824  0.00000000  1
  Ir  Ir1  1  0.27777440  0.83524824  0.50000000  1
  Ir  Ir2  1  0.72222560  0.16475176  0.50000000  1
  Ir  Ir3  1  0.77777440  0.66475176  0.00000000  1
  Ta  Ta0  1  0.00000000  0.00000000  0.00000000  1
  Ta  Ta1  1  0.50000000  0.50000000  0.50000000  1
