# generated using pymatgen
data_558_K2Sn
_symmetry_space_group_name_H-M   'I4/mmm'
_cell_length_a   7.28274749
_cell_length_b   7.28274749
_cell_length_c   7.28274749
_cell_angle_alpha   144.71881795
_cell_angle_beta   144.71881795
_cell_angle_gamma   50.75374806
_chemical_formula_structural   K2Sn
_chemical_formula_sum   'K2 Sn1'
_cell_volume   128.20130593
loop_
 _symmetry_equiv_pos_site_id
 _symmetry_equiv_pos_as_xyz
  1  'x, y, z'
loop_
 _atom_type_symbol
  K
  Sn
loop_
 _atom_site_type_symbol
 _atom_site_label
 _atom_site_symmetry_multiplicity
 _atom_site_fract_x
 _atom_site_fract_y
 _atom_site_fract_z
 _atom_site_occupancy
  K  K0  1  0.64692731  0.64692731  0.00000000  1
  K  K1  1  0.35307269  0.35307269  0.00000000  1
  Sn  Sn0  1  0.00000000  0.00000000  0.00000000  1
