# generated using pymatgen
data_55_AgMn
_symmetry_space_group_name_H-M   'P4/mmm'
_cell_length_a   3.66246298
_cell_length_b   3.66246298
_cell_length_c   4.25753086
_cell_angle_alpha   90.00000000
_cell_angle_beta   90.00000000
_cell_angle_gamma   90.00000000
_chemical_formula_structural   AgMn
_chemical_formula_sum   'Ag2 Mn2'
_cell_volume   57.10896530
loop_
 _symmetry_equiv_pos_site_id
 _symmetry_equiv_pos_as_xyz
  1  'x, y, z'
loop_
 _atom_type_symbol
  Ag
  Mn
loop_
 _atom_site_type_symbol
 _atom_site_label
 _atom_site_symmetry_multiplicity
 _atom_site_fract_x
 _atom_site_fract_y
 _atom_site_fract_z
 _atom_site_occupancy
  Ag  Ag0  1  0.25000000  0.25000000  0.49955077  1
  Ag  Ag1  1  0.75000000  0.75000000  0.50044923  1
  Mn  Mn0  1  0.25000000  0.75000000  0.00000000  1
  Mn  Mn1  1  0.75000000  0.25000000  0.00000000  1
