# generated using pymatgen
data_560_Ir4As12
_symmetry_space_group_name_H-M   'Im -3'
_cell_length_a   7.43956019
_cell_length_b   7.43956019
_cell_length_c   7.43956019
_cell_angle_alpha   109.47122063
_cell_angle_beta   109.47122063
_cell_angle_gamma   109.47122063
_chemical_formula_structural   Ir4As12
_chemical_formula_sum   'As12 Ir4'
_cell_volume   316.97126650
loop_
 _symmetry_equiv_pos_site_id
 _symmetry_equiv_pos_as_xyz
  1  'x, y, z'
loop_
 _atom_type_symbol
  As
  Ir
loop_
 _atom_site_type_symbol
 _atom_site_label
 _atom_site_symmetry_multiplicity
 _atom_site_fract_x
 _atom_site_fract_y
 _atom_site_fract_z
 _atom_site_occupancy
  As  As0  1  0.65202779  0.14596954  0.79799734  1
  As  As1  1  0.34797221  0.14596954  0.49394175  1
  As  As2  1  0.65202779  0.85403046  0.50605825  1
  As  As3  1  0.34797221  0.85403046  0.20200266  1
  As  As4  1  0.14596954  0.49394175  0.34797221  1
  As  As5  1  0.14596954  0.79799734  0.65202779  1
  As  As6  1  0.85403046  0.20200266  0.34797221  1
  As  As7  1  0.85403046  0.50605825  0.65202779  1
  As  As8  1  0.20200266  0.34797221  0.85403046  1
  As  As9  1  0.50605825  0.65202779  0.85403046  1
  As  As10  1  0.49394175  0.34797221  0.14596954  1
  As  As11  1  0.79799734  0.65202779  0.14596954  1
  Ir  Ir0  1  0.00000000  0.50000000  0.00000000  1
  Ir  Ir1  1  0.00000000  0.00000000  0.50000000  1
  Ir  Ir2  1  0.50000000  0.50000000  0.50000000  1
  Ir  Ir3  1  0.50000000  0.00000000  0.00000000  1
