# generated using pymatgen
data_562_Mo2W4
_symmetry_space_group_name_H-M   'C2/m'
_cell_length_a   3.17788385
_cell_length_b   5.27167127
_cell_length_c   6.34978658
_cell_angle_alpha   72.49215015
_cell_angle_beta   90.00000000
_cell_angle_gamma   107.54239608
_chemical_formula_structural   Mo2W4
_chemical_formula_sum   'Mo2 W4'
_cell_volume   96.24855659
loop_
 _symmetry_equiv_pos_site_id
 _symmetry_equiv_pos_as_xyz
  1  'x, y, z'
loop_
 _atom_type_symbol
  Mo
  W
loop_
 _atom_site_type_symbol
 _atom_site_label
 _atom_site_symmetry_multiplicity
 _atom_site_fract_x
 _atom_site_fract_y
 _atom_site_fract_z
 _atom_site_occupancy
  Mo  Mo0  1  0.36106332  0.72212665  0.77759733  1
  Mo  Mo1  1  0.69449223  0.38898447  0.61129156  1
  W  W0  1  0.02747940  0.05495879  0.94389975  1
  W  W1  1  0.02807616  0.05615232  0.44498913  1
  W  W2  1  0.36130922  0.72261844  0.27801705  1
  W  W3  1  0.69424634  0.38849268  0.11087184  1
