# generated using pymatgen
data_569_CuNi
_symmetry_space_group_name_H-M   'P-6m2'
_cell_length_a   2.49830512
_cell_length_b   2.49828397
_cell_length_c   4.13119187
_cell_angle_alpha   90.00000000
_cell_angle_beta   90.00000000
_cell_angle_gamma   120.00029286
_chemical_formula_structural   CuNi
_chemical_formula_sum   'Cu1 Ni1'
_cell_volume   22.33016821
loop_
 _symmetry_equiv_pos_site_id
 _symmetry_equiv_pos_as_xyz
  1  'x, y, z'
loop_
 _atom_type_symbol
  Cu
  Ni
loop_
 _atom_site_type_symbol
 _atom_site_label
 _atom_site_symmetry_multiplicity
 _atom_site_fract_x
 _atom_site_fract_y
 _atom_site_fract_z
 _atom_site_occupancy
  Cu  Cu0  1  0.66666765  0.33333430  0.75000000  1
  Ni  Ni0  1  0.33333235  0.66666570  0.25000000  1
