# generated using pymatgen
data_570_Cr2Ta2
_symmetry_space_group_name_H-M   'Imma'
_cell_length_a   5.20789024
_cell_length_b   5.20789024
_cell_length_c   5.20789024
_cell_angle_alpha   145.53103385
_cell_angle_beta   130.95429736
_cell_angle_gamma   61.32180323
_chemical_formula_structural   Cr2Ta2
_chemical_formula_sum   'Cr2 Ta2'
_cell_volume   59.76660500
loop_
 _symmetry_equiv_pos_site_id
 _symmetry_equiv_pos_as_xyz
  1  'x, y, z'
loop_
 _atom_type_symbol
  Cr
  Ta
loop_
 _atom_site_type_symbol
 _atom_site_label
 _atom_site_symmetry_multiplicity
 _atom_site_fract_x
 _atom_site_fract_y
 _atom_site_fract_z
 _atom_site_occupancy
  Cr  Cr0  1  0.38515502  0.63515502  0.25000000  1
  Cr  Cr1  1  0.61484498  0.36484498  0.75000000  1
  Ta  Ta0  1  0.86675464  0.11675464  0.25000000  1
  Ta  Ta1  1  0.13324536  0.88324536  0.75000000  1
