# generated using pymatgen
data_571_Ba2V
_symmetry_space_group_name_H-M   'I4/mmm'
_cell_length_a   8.17204597
_cell_length_b   8.17204597
_cell_length_c   8.17204597
_cell_angle_alpha   151.02055847
_cell_angle_beta   151.02055847
_cell_angle_gamma   41.44536629
_chemical_formula_structural   Ba2V
_chemical_formula_sum   'Ba2 V1'
_cell_volume   127.82085053
loop_
 _symmetry_equiv_pos_site_id
 _symmetry_equiv_pos_as_xyz
  1  'x, y, z'
loop_
 _atom_type_symbol
  Ba
  V
loop_
 _atom_site_type_symbol
 _atom_site_label
 _atom_site_symmetry_multiplicity
 _atom_site_fract_x
 _atom_site_fract_y
 _atom_site_fract_z
 _atom_site_occupancy
  Ba  Ba0  1  0.96734497  0.96734497  0.00000000  1
  Ba  Ba1  1  0.69932170  0.69932170  0.00000000  1
  V  V0  1  0.33333333  0.33333333  0.00000000  1
