# generated using pymatgen
data_572_Ni2Sn2
_symmetry_space_group_name_H-M   'P4/nmm'
_cell_length_a   3.16350041
_cell_length_b   3.16350041
_cell_length_c   7.12232557
_cell_angle_alpha   90.00000000
_cell_angle_beta   90.00000000
_cell_angle_gamma   90.00000000
_chemical_formula_structural   Ni2Sn2
_chemical_formula_sum   'Ni2 Sn2'
_cell_volume   71.27834578
loop_
 _symmetry_equiv_pos_site_id
 _symmetry_equiv_pos_as_xyz
  1  'x, y, z'
loop_
 _atom_type_symbol
  Ni
  Sn
loop_
 _atom_site_type_symbol
 _atom_site_label
 _atom_site_symmetry_multiplicity
 _atom_site_fract_x
 _atom_site_fract_y
 _atom_site_fract_z
 _atom_site_occupancy
  Ni  Ni0  1  0.25000000  0.25000000  0.58873564  1
  Ni  Ni1  1  0.75000000  0.75000000  0.41126436  1
  Sn  Sn0  1  0.25000000  0.25000000  0.20043796  1
  Sn  Sn1  1  0.75000000  0.75000000  0.79956204  1
