# generated using pymatgen
data_576_CrNa
_symmetry_space_group_name_H-M   'Cmmm'
_cell_length_a   3.07374843
_cell_length_b   3.07374843
_cell_length_c   5.46931740
_cell_angle_alpha   90.00000000
_cell_angle_beta   90.00000000
_cell_angle_gamma   116.01083372
_chemical_formula_structural   CrNa
_chemical_formula_sum   'Cr1 Na1'
_cell_volume   46.43975225
loop_
 _symmetry_equiv_pos_site_id
 _symmetry_equiv_pos_as_xyz
  1  'x, y, z'
loop_
 _atom_type_symbol
  Cr
  Na
loop_
 _atom_site_type_symbol
 _atom_site_label
 _atom_site_symmetry_multiplicity
 _atom_site_fract_x
 _atom_site_fract_y
 _atom_site_fract_z
 _atom_site_occupancy
  Cr  Cr0  1  0.00000000  0.00000000  0.00000000  1
  Na  Na0  1  0.50000000  0.50000000  0.50000000  1
