# generated using pymatgen
data_57_Ga2Np
_symmetry_space_group_name_H-M   'P6/mmm'
_cell_length_a   4.74011857
_cell_length_b   4.74011784
_cell_length_c   2.94923557
_cell_angle_alpha   90.00000000
_cell_angle_beta   90.00000000
_cell_angle_gamma   120.00580770
_chemical_formula_structural   Ga2Np
_chemical_formula_sum   'Ga2 Np1'
_cell_volume   57.38429092
loop_
 _symmetry_equiv_pos_site_id
 _symmetry_equiv_pos_as_xyz
  1  'x, y, z'
loop_
 _atom_type_symbol
  Ga
  Np
loop_
 _atom_site_type_symbol
 _atom_site_label
 _atom_site_symmetry_multiplicity
 _atom_site_fract_x
 _atom_site_fract_y
 _atom_site_fract_z
 _atom_site_occupancy
  Ga  Ga0  1  0.66669656  0.33336424  0.50000043  1
  Ga  Ga1  1  0.33336543  0.66669620  0.50000043  1
  Np  Np0  1  0.00003768  0.00003788  0.00000000  1
