# generated using pymatgen
data_581_BaPd3
_symmetry_space_group_name_H-M   'Immm'
_cell_length_a   5.43759557
_cell_length_b   5.43759557
_cell_length_c   5.43759557
_cell_angle_alpha   137.51866851
_cell_angle_beta   126.70354846
_cell_angle_gamma   70.41698882
_chemical_formula_structural   BaPd3
_chemical_formula_sum   'Ba1 Pd3'
_cell_volume   85.38070862
loop_
 _symmetry_equiv_pos_site_id
 _symmetry_equiv_pos_as_xyz
  1  'x, y, z'
loop_
 _atom_type_symbol
  Ba
  Pd
loop_
 _atom_site_type_symbol
 _atom_site_label
 _atom_site_symmetry_multiplicity
 _atom_site_fract_x
 _atom_site_fract_y
 _atom_site_fract_z
 _atom_site_occupancy
  Ba  Ba0  1  0.50000000  0.00000000  0.50000000  1
  Pd  Pd0  1  0.22616497  0.22616497  1.00000000  1
  Pd  Pd1  1  0.77383503  0.77383503  1.00000000  1
  Pd  Pd2  1  0.00000000  0.50000000  0.50000000  1
