# generated using pymatgen
data_587_Ac4Br6
_symmetry_space_group_name_H-M   'R -3 c'
_cell_length_a   7.42091600
_cell_length_b   7.42091619
_cell_length_c   8.92916961
_cell_angle_alpha   114.55354539
_cell_angle_beta   65.44645483
_cell_angle_gamma   119.99999913
_chemical_formula_structural   Ac4Br6
_chemical_formula_sum   'Ac4 Br6'
_cell_volume   373.62487864
loop_
 _symmetry_equiv_pos_site_id
 _symmetry_equiv_pos_as_xyz
  1  'x, y, z'
loop_
 _atom_type_symbol
  Ac
  Br
loop_
 _atom_site_type_symbol
 _atom_site_label
 _atom_site_symmetry_multiplicity
 _atom_site_fract_x
 _atom_site_fract_y
 _atom_site_fract_z
 _atom_site_occupancy
  Ac  Ac0  1  0.33368538  0.66631511  0.99894436  1
  Ac  Ac1  1  0.66631478  0.33368460  0.00105564  1
  Ac  Ac2  1  0.83368579  0.16631482  0.49894446  1
  Ac  Ac3  1  0.16631492  0.83368557  0.50105574  1
  Br  Br0  1  0.25000090  0.08553666  0.25000005  1
  Br  Br1  1  0.91446368  0.41446432  0.25000005  1
  Br  Br2  1  0.58553557  0.75000034  0.25000005  1
  Br  Br3  1  0.41446379  0.25000005  0.75000015  1
  Br  Br4  1  0.08553567  0.58553607  0.75000015  1
  Br  Br5  1  0.74999981  0.91446373  0.75000015  1
