# generated using pymatgen
data_588_Ag4Al4
_symmetry_space_group_name_H-M   'P1'
_cell_length_a   4.97117990
_cell_length_b   5.79538870
_cell_length_c   5.09984504
_cell_angle_alpha   87.17462564
_cell_angle_beta   100.62972418
_cell_angle_gamma   71.80342533
_chemical_formula_structural   Ag4Al4
_chemical_formula_sum   'Ag4 Al4'
_cell_volume   136.28124450
loop_
 _symmetry_equiv_pos_site_id
 _symmetry_equiv_pos_as_xyz
  1  'x, y, z'
loop_
 _atom_type_symbol
  Ag
  Al
loop_
 _atom_site_type_symbol
 _atom_site_label
 _atom_site_symmetry_multiplicity
 _atom_site_fract_x
 _atom_site_fract_y
 _atom_site_fract_z
 _atom_site_occupancy
  Ag  Ag0  1  0.00181728  0.99436190  0.99604164  1
  Ag  Ag1  1  0.51168910  0.11713975  0.25655050  1
  Ag  Ag2  1  0.00555076  0.25738974  0.50724466  1
  Ag  Ag3  1  0.98694798  0.50938352  0.99482076  1
  Al  Al0  1  0.50222949  0.37627455  0.75110307  1
  Al  Al1  1  0.49659895  0.62156719  0.24956240  1
  Al  Al2  1  0.00203485  0.74984319  0.49828018  1
  Al  Al3  1  0.49313159  0.87404016  0.74639678  1
