# generated using pymatgen
data_58_Na2Pt4
_symmetry_space_group_name_H-M   'Cmcm'
_cell_length_a   2.80796315
_cell_length_b   8.03571645
_cell_length_c   4.56475181
_cell_angle_alpha   90.00000000
_cell_angle_beta   90.00000000
_cell_angle_gamma   79.93777187
_chemical_formula_structural   Na2Pt4
_chemical_formula_sum   'Na2 Pt4'
_cell_volume   101.41476809
loop_
 _symmetry_equiv_pos_site_id
 _symmetry_equiv_pos_as_xyz
  1  'x, y, z'
loop_
 _atom_type_symbol
  Na
  Pt
loop_
 _atom_site_type_symbol
 _atom_site_label
 _atom_site_symmetry_multiplicity
 _atom_site_fract_x
 _atom_site_fract_y
 _atom_site_fract_z
 _atom_site_occupancy
  Na  Na0  1  0.99651797  0.00696406  0.00000000  1
  Na  Na1  1  0.55903759  0.88192482  0.50000000  1
  Pt  Pt0  1  0.67441517  0.65116967  0.00000000  1
  Pt  Pt1  1  0.33461291  0.33077418  0.00000000  1
  Pt  Pt2  1  0.22094265  0.55811470  0.50000000  1
  Pt  Pt3  1  0.88114039  0.23771922  0.50000000  1
