# generated using pymatgen
data_590_Sb4Ge2
_symmetry_space_group_name_H-M   'Cmcm'
_cell_length_a   8.47946880
_cell_length_b   8.47946880
_cell_length_c   5.36047065
_cell_angle_alpha   90.00000000
_cell_angle_beta   90.00000000
_cell_angle_gamma   157.06561653
_chemical_formula_structural   Sb4Ge2
_chemical_formula_sum   'Ge2 Sb4'
_cell_volume   150.19125315
loop_
 _symmetry_equiv_pos_site_id
 _symmetry_equiv_pos_as_xyz
  1  'x, y, z'
loop_
 _atom_type_symbol
  Ge
  Sb
loop_
 _atom_site_type_symbol
 _atom_site_label
 _atom_site_symmetry_multiplicity
 _atom_site_fract_x
 _atom_site_fract_y
 _atom_site_fract_z
 _atom_site_occupancy
  Ge  Ge0  1  0.66981352  0.33018648  0.00000000  1
  Ge  Ge1  1  0.44129759  0.55870241  0.50000000  1
  Sb  Sb0  1  0.00388439  0.99611561  0.00000000  1
  Sb  Sb1  1  0.32561422  0.67438578  0.00000000  1
  Sb  Sb2  1  0.78549689  0.21450311  0.50000000  1
  Sb  Sb3  1  0.10722672  0.89277328  0.50000000  1
