# generated using pymatgen
data_594_AlP2
_symmetry_space_group_name_H-M   'I4/mmm'
_cell_length_a   5.69865033
_cell_length_b   5.69865033
_cell_length_c   5.69865033
_cell_angle_alpha   146.35254676
_cell_angle_beta   146.35254676
_cell_angle_gamma   48.32340855
_chemical_formula_structural   AlP2
_chemical_formula_sum   'Al1 P2'
_cell_volume   56.57702370
loop_
 _symmetry_equiv_pos_site_id
 _symmetry_equiv_pos_as_xyz
  1  'x, y, z'
loop_
 _atom_type_symbol
  Al
  P
loop_
 _atom_site_type_symbol
 _atom_site_label
 _atom_site_symmetry_multiplicity
 _atom_site_fract_x
 _atom_site_fract_y
 _atom_site_fract_z
 _atom_site_occupancy
  Al  Al0  1  0.00000000  0.00000000  0.00000000  1
  P  P0  1  0.60733956  0.60733956  0.00000000  1
  P  P1  1  0.39266044  0.39266044  0.00000000  1
