# generated using pymatgen
data_595_Fe2Ga2
_symmetry_space_group_name_H-M   'P4/nmm'
_cell_length_a   2.63550062
_cell_length_b   2.63550062
_cell_length_c   7.54081871
_cell_angle_alpha   90.00000000
_cell_angle_beta   90.00000000
_cell_angle_gamma   90.00000000
_chemical_formula_structural   Fe2Ga2
_chemical_formula_sum   'Fe2 Ga2'
_cell_volume   52.37749757
loop_
 _symmetry_equiv_pos_site_id
 _symmetry_equiv_pos_as_xyz
  1  'x, y, z'
loop_
 _atom_type_symbol
  Fe
  Ga
loop_
 _atom_site_type_symbol
 _atom_site_label
 _atom_site_symmetry_multiplicity
 _atom_site_fract_x
 _atom_site_fract_y
 _atom_site_fract_z
 _atom_site_occupancy
  Fe  Fe0  1  0.25000000  0.25000000  0.09623318  1
  Fe  Fe1  1  0.75000000  0.75000000  0.90376682  1
  Ga  Ga0  1  0.25000000  0.25000000  0.66751567  1
  Ga  Ga1  1  0.75000000  0.75000000  0.33248433  1
