# generated using pymatgen
data_596_Cr6Ta18
_symmetry_space_group_name_H-M   'Pmmn'
_cell_length_a   5.42874315
_cell_length_b   5.39312430
_cell_length_c   14.01098145
_cell_angle_alpha   90.00000000
_cell_angle_beta   90.00000000
_cell_angle_gamma   90.00000000
_chemical_formula_structural   Cr6Ta18
_chemical_formula_sum   'Cr6 Ta18'
_cell_volume   410.21192606
loop_
 _symmetry_equiv_pos_site_id
 _symmetry_equiv_pos_as_xyz
  1  'x, y, z'
loop_
 _atom_type_symbol
  Cr
  Ta
loop_
 _atom_site_type_symbol
 _atom_site_label
 _atom_site_symmetry_multiplicity
 _atom_site_fract_x
 _atom_site_fract_y
 _atom_site_fract_z
 _atom_site_occupancy
  Cr  Cr0  1  0.08822757  0.25000000  0.75000000  1
  Cr  Cr1  1  0.61237574  0.25000000  0.42698771  1
  Cr  Cr2  1  0.61237574  0.25000000  0.07301229  1
  Cr  Cr3  1  0.91177243  0.75000000  0.25000000  1
  Cr  Cr4  1  0.38762426  0.75000000  0.92698771  1
  Cr  Cr5  1  0.38762426  0.75000000  0.57301229  1
  Ta  Ta0  1  0.12796412  0.00058333  0.41764095  1
  Ta  Ta1  1  0.12796412  0.00058333  0.08235905  1
  Ta  Ta2  1  0.61311130  0.00108159  0.75000000  1
  Ta  Ta3  1  0.38688870  0.99891841  0.25000000  1
  Ta  Ta4  1  0.87203588  0.99941667  0.91764095  1
  Ta  Ta5  1  0.87203588  0.99941667  0.58235905  1
  Ta  Ta6  1  0.85703720  0.25000000  0.25000000  1
  Ta  Ta7  1  0.36161959  0.25000000  0.91056671  1
  Ta  Ta8  1  0.36161959  0.25000000  0.58943329  1
  Ta  Ta9  1  0.12796412  0.49941667  0.41764095  1
  Ta  Ta10  1  0.12796412  0.49941667  0.08235905  1
  Ta  Ta11  1  0.61311130  0.49891841  0.75000000  1
  Ta  Ta12  1  0.38688870  0.50108159  0.25000000  1
  Ta  Ta13  1  0.87203588  0.50058333  0.91764095  1
  Ta  Ta14  1  0.87203588  0.50058333  0.58235905  1
  Ta  Ta15  1  0.14296280  0.75000000  0.75000000  1
  Ta  Ta16  1  0.63838041  0.75000000  0.41056671  1
  Ta  Ta17  1  0.63838041  0.75000000  0.08943329  1
