# generated using pymatgen
data_599_Ag2Na
_symmetry_space_group_name_H-M   'Immm'
_cell_length_a   4.46791134
_cell_length_b   2.93932528
_cell_length_c   9.17105048
_cell_angle_alpha   90.00000000
_cell_angle_beta   90.00000000
_cell_angle_gamma   90.00000000
_chemical_formula_structural   Ag2Na
_chemical_formula_sum   'Ag4 Na2'
_cell_volume   120.44014794
loop_
 _symmetry_equiv_pos_site_id
 _symmetry_equiv_pos_as_xyz
  1  'x, y, z'
loop_
 _atom_type_symbol
  Ag
  Na
loop_
 _atom_site_type_symbol
 _atom_site_label
 _atom_site_symmetry_multiplicity
 _atom_site_fract_x
 _atom_site_fract_y
 _atom_site_fract_z
 _atom_site_occupancy
  Ag  Ag0  1  0.00000000  0.00851857  0.67712803  1
  Ag  Ag1  1  0.00000000  0.99148143  0.32287197  1
  Ag  Ag2  1  0.50000000  0.50851857  0.82287197  1
  Ag  Ag3  1  0.50000000  0.49148143  0.17712803  1
  Na  Na0  1  0.00000000  0.00000000  0.00000000  1
  Na  Na1  1  0.50000000  0.50000000  0.50000000  1
