# generated using pymatgen
data_59_GaNp
_symmetry_space_group_name_H-M   'P-6m2'
_cell_length_a   2.82183339
_cell_length_b   2.82182320
_cell_length_c   5.26454949
_cell_angle_alpha   90.00000000
_cell_angle_beta   90.00000000
_cell_angle_gamma   120.00011003
_chemical_formula_structural   GaNp
_chemical_formula_sum   'Ga1 Np1'
_cell_volume   36.30383722
loop_
 _symmetry_equiv_pos_site_id
 _symmetry_equiv_pos_as_xyz
  1  'x, y, z'
loop_
 _atom_type_symbol
  Ga
  Np
loop_
 _atom_site_type_symbol
 _atom_site_label
 _atom_site_symmetry_multiplicity
 _atom_site_fract_x
 _atom_site_fract_y
 _atom_site_fract_z
 _atom_site_occupancy
  Ga  Ga0  1  0.66666752  0.33333404  0.75000000  1
  Np  Np0  1  0.33333248  0.66666596  0.25000000  1
