# generated using pymatgen
data_616_Mo2Nb2
_symmetry_space_group_name_H-M   'Fd -3 m'
_cell_length_a   4.56736464
_cell_length_b   4.56736464
_cell_length_c   11.16672986
_cell_angle_alpha   90.00000000
_cell_angle_beta   90.00000000
_cell_angle_gamma   120.00000004
_chemical_formula_structural   Mo2Nb2
_chemical_formula_sum   'Mo6 Nb6'
_cell_volume   201.73814016
loop_
 _symmetry_equiv_pos_site_id
 _symmetry_equiv_pos_as_xyz
  1  'x, y, z'
loop_
 _atom_type_symbol
  Mo
  Nb
loop_
 _atom_site_type_symbol
 _atom_site_label
 _atom_site_symmetry_multiplicity
 _atom_site_fract_x
 _atom_site_fract_y
 _atom_site_fract_z
 _atom_site_occupancy
  Mo  Mo0  1  0.00000000  0.00000000  0.37480186  1
  Mo  Mo1  1  0.00000000  0.00000000  0.62519814  1
  Mo  Mo2  1  0.33333333  0.66666667  0.70813559  1
  Mo  Mo3  1  0.33333333  0.66666667  0.95850005  1
  Mo  Mo4  1  0.66666667  0.33333333  0.04149995  1
  Mo  Mo5  1  0.66666667  0.33333333  0.29186441  1
  Nb  Nb0  1  0.00000000  0.00000000  0.12484415  1
  Nb  Nb1  1  0.00000000  0.00000000  0.87515585  1
  Nb  Nb2  1  0.33333333  0.66666667  0.45822506  1
  Nb  Nb3  1  0.33333333  0.66666667  0.20831341  1
  Nb  Nb4  1  0.66666667  0.33333333  0.79168659  1
  Nb  Nb5  1  0.66666667  0.33333333  0.54177494  1
