# generated using pymatgen
data_620_K2As2
_symmetry_space_group_name_H-M   'P4/nmm'
_cell_length_a   6.81112897
_cell_length_b   6.81112897
_cell_length_c   3.98213856
_cell_angle_alpha   90.00000000
_cell_angle_beta   90.00000000
_cell_angle_gamma   90.00000000
_chemical_formula_structural   K2As2
_chemical_formula_sum   'As2 K2'
_cell_volume   184.73729279
loop_
 _symmetry_equiv_pos_site_id
 _symmetry_equiv_pos_as_xyz
  1  'x, y, z'
loop_
 _atom_type_symbol
  As
  K
loop_
 _atom_site_type_symbol
 _atom_site_label
 _atom_site_symmetry_multiplicity
 _atom_site_fract_x
 _atom_site_fract_y
 _atom_site_fract_z
 _atom_site_occupancy
  As  As0  1  0.25000000  0.25000000  0.40628557  1
  As  As1  1  0.75000000  0.75000000  0.59371443  1
  K  K0  1  0.25000000  0.75000000  0.00000000  1
  K  K1  1  0.75000000  0.25000000  0.00000000  1
