# generated using pymatgen
data_621_V3Br
_symmetry_space_group_name_H-M   'I4/mmm'
_cell_length_a   5.17688183
_cell_length_b   5.17688183
_cell_length_c   5.17688183
_cell_angle_alpha   139.76155117
_cell_angle_beta   139.76155117
_cell_angle_gamma   58.21552862
_chemical_formula_structural   V3Br
_chemical_formula_sum   'Br1 V3'
_cell_volume   57.36980756
loop_
 _symmetry_equiv_pos_site_id
 _symmetry_equiv_pos_as_xyz
  1  'x, y, z'
loop_
 _atom_type_symbol
  Br
  V
loop_
 _atom_site_type_symbol
 _atom_site_label
 _atom_site_symmetry_multiplicity
 _atom_site_fract_x
 _atom_site_fract_y
 _atom_site_fract_z
 _atom_site_occupancy
  Br  Br0  1  0.00000000  0.00000000  0.00000000  1
  V  V0  1  0.25000000  0.75000000  0.50000000  1
  V  V1  1  0.50000000  0.50000000  0.00000000  1
  V  V2  1  0.75000000  0.25000000  0.50000000  1
