# generated using pymatgen
data_623_K2As2
_symmetry_space_group_name_H-M   'Imma'
_cell_length_a   6.57881982
_cell_length_b   6.57881982
_cell_length_c   6.57881982
_cell_angle_alpha   143.56936662
_cell_angle_beta   131.61271240
_cell_angle_gamma   62.05209794
_chemical_formula_structural   K2As2
_chemical_formula_sum   'As2 K2'
_cell_volume   125.03150642
loop_
 _symmetry_equiv_pos_site_id
 _symmetry_equiv_pos_as_xyz
  1  'x, y, z'
loop_
 _atom_type_symbol
  As
  K
loop_
 _atom_site_type_symbol
 _atom_site_label
 _atom_site_symmetry_multiplicity
 _atom_site_fract_x
 _atom_site_fract_y
 _atom_site_fract_z
 _atom_site_occupancy
  As  As0  1  0.94145650  0.94145650  1.00000000  1
  As  As1  1  0.80854350  0.30854350  0.50000000  1
  K  K0  1  0.51617869  0.51617869  1.00000000  1
  K  K1  1  0.23382131  0.73382131  0.50000000  1
