# generated using pymatgen
data_624_Fe5As3
_symmetry_space_group_name_H-M   'Cmmm'
_cell_length_a   5.05865179
_cell_length_b   5.05865179
_cell_length_c   4.09259040
_cell_angle_alpha   90.00000000
_cell_angle_beta   90.00000000
_cell_angle_gamma   101.68055531
_chemical_formula_structural   Fe5As3
_chemical_formula_sum   'As3 Fe5'
_cell_volume   102.56043916
loop_
 _symmetry_equiv_pos_site_id
 _symmetry_equiv_pos_as_xyz
  1  'x, y, z'
loop_
 _atom_type_symbol
  As
  Fe
loop_
 _atom_site_type_symbol
 _atom_site_label
 _atom_site_symmetry_multiplicity
 _atom_site_fract_x
 _atom_site_fract_y
 _atom_site_fract_z
 _atom_site_occupancy
  As  As0  1  0.50000000  0.50000000  0.00000000  1
  As  As1  1  0.79743332  0.20256668  0.50000000  1
  As  As2  1  0.20256668  0.79743332  0.50000000  1
  Fe  Fe0  1  0.00000000  0.00000000  0.00000000  1
  Fe  Fe1  1  0.00000000  0.50000000  0.00000000  1
  Fe  Fe2  1  0.50000000  0.00000000  0.00000000  1
  Fe  Fe3  1  0.30286069  0.30286069  0.50000000  1
  Fe  Fe4  1  0.69713931  0.69713931  0.50000000  1
