# generated using pymatgen
data_62_FeIr2
_symmetry_space_group_name_H-M   'I4/mmm'
_cell_length_a   5.87368937
_cell_length_b   5.87368937
_cell_length_c   5.87368937
_cell_angle_alpha   153.70065603
_cell_angle_beta   153.70065603
_cell_angle_gamma   37.53484146
_chemical_formula_structural   FeIr2
_chemical_formula_sum   'Fe1 Ir2'
_cell_volume   39.72025334
loop_
 _symmetry_equiv_pos_site_id
 _symmetry_equiv_pos_as_xyz
  1  'x, y, z'
loop_
 _atom_type_symbol
  Fe
  Ir
loop_
 _atom_site_type_symbol
 _atom_site_label
 _atom_site_symmetry_multiplicity
 _atom_site_fract_x
 _atom_site_fract_y
 _atom_site_fract_z
 _atom_site_occupancy
  Fe  Fe0  1  0.50000000  0.50000000  0.00000000  1
  Ir  Ir0  1  0.15985196  0.15985196  0.00000000  1
  Ir  Ir1  1  0.84014804  0.84014804  0.00000000  1
