# generated using pymatgen
data_638_Ta2V2
_symmetry_space_group_name_H-M   'Cmcm'
_cell_length_a   3.04722138
_cell_length_b   5.08018718
_cell_length_c   4.45196317
_cell_angle_alpha   90.00000000
_cell_angle_beta   90.00000000
_cell_angle_gamma   107.45233655
_chemical_formula_structural   Ta2V2
_chemical_formula_sum   'Ta2 V2'
_cell_volume   65.74587840
loop_
 _symmetry_equiv_pos_site_id
 _symmetry_equiv_pos_as_xyz
  1  'x, y, z'
loop_
 _atom_type_symbol
  Ta
  V
loop_
 _atom_site_type_symbol
 _atom_site_label
 _atom_site_symmetry_multiplicity
 _atom_site_fract_x
 _atom_site_fract_y
 _atom_site_fract_z
 _atom_site_occupancy
  Ta  Ta0  1  0.36022991  0.72045983  0.25000000  1
  Ta  Ta1  1  0.63977009  0.27954017  0.75000000  1
  V  V0  1  0.08861287  0.17722574  0.25000000  1
  V  V1  1  0.91138713  0.82277426  0.75000000  1
