# generated using pymatgen
data_639_Ni2P2
_symmetry_space_group_name_H-M   'P4/nmm'
_cell_length_a   2.86279285
_cell_length_b   2.86279285
_cell_length_c   6.70859364
_cell_angle_alpha   90.00000000
_cell_angle_beta   90.00000000
_cell_angle_gamma   90.00000000
_chemical_formula_structural   Ni2P2
_chemical_formula_sum   'Ni2 P2'
_cell_volume   54.98083533
loop_
 _symmetry_equiv_pos_site_id
 _symmetry_equiv_pos_as_xyz
  1  'x, y, z'
loop_
 _atom_type_symbol
  Ni
  P
loop_
 _atom_site_type_symbol
 _atom_site_label
 _atom_site_symmetry_multiplicity
 _atom_site_fract_x
 _atom_site_fract_y
 _atom_site_fract_z
 _atom_site_occupancy
  Ni  Ni0  1  0.00000000  0.00000000  0.99910893  1
  Ni  Ni1  1  0.50000000  0.50000000  0.75089107  1
  P  P0  1  0.00000000  0.00000000  0.58910719  1
  P  P1  1  0.50000000  0.50000000  0.16089281  1
