# generated using pymatgen
data_63_Cr2Sr2
_symmetry_space_group_name_H-M   'P4/nmm'
_cell_length_a   3.29052634
_cell_length_b   3.29052634
_cell_length_c   9.28418317
_cell_angle_alpha   90.00000000
_cell_angle_beta   90.00000000
_cell_angle_gamma   90.00000000
_chemical_formula_structural   Cr2Sr2
_chemical_formula_sum   'Cr2 Sr2'
_cell_volume   100.52508369
loop_
 _symmetry_equiv_pos_site_id
 _symmetry_equiv_pos_as_xyz
  1  'x, y, z'
loop_
 _atom_type_symbol
  Cr
  Sr
loop_
 _atom_site_type_symbol
 _atom_site_label
 _atom_site_symmetry_multiplicity
 _atom_site_fract_x
 _atom_site_fract_y
 _atom_site_fract_z
 _atom_site_occupancy
  Cr  Cr0  1  0.00000000  0.00000000  0.91026675  1
  Cr  Cr1  1  0.50000000  0.50000000  0.83973325  1
  Sr  Sr0  1  0.00000000  0.00000000  0.57742255  1
  Sr  Sr1  1  0.50000000  0.50000000  0.17257745  1
