# generated using pymatgen
data_642_As4Br16
_symmetry_space_group_name_H-M   'I-43m'
_cell_length_a   9.76904585
_cell_length_b   9.76904585
_cell_length_c   9.76904585
_cell_angle_alpha   109.47122063
_cell_angle_beta   109.47122063
_cell_angle_gamma   109.47122063
_chemical_formula_structural   As4Br16
_chemical_formula_sum   'As4 Br16'
_cell_volume   717.68612934
loop_
 _symmetry_equiv_pos_site_id
 _symmetry_equiv_pos_as_xyz
  1  'x, y, z'
loop_
 _atom_type_symbol
  As
  Br
loop_
 _atom_site_type_symbol
 _atom_site_label
 _atom_site_symmetry_multiplicity
 _atom_site_fract_x
 _atom_site_fract_y
 _atom_site_fract_z
 _atom_site_occupancy
  As  As0  1  0.22616932  0.22616932  0.22616932  1
  As  As1  1  0.77383068  0.00000000  0.00000000  1
  As  As2  1  0.00000000  0.77383068  0.00000000  1
  As  As3  1  0.00000000  0.00000000  0.77383068  1
  Br  Br0  1  0.45902858  0.45902858  0.45902858  1
  Br  Br1  1  0.54097142  0.00000000  0.00000000  1
  Br  Br2  1  1.00000000  0.54097142  0.00000000  1
  Br  Br3  1  1.00000000  0.00000000  0.54097142  1
  Br  Br4  1  0.71202966  0.71202966  0.00000000  1
  Br  Br5  1  0.28797034  0.28797034  0.00000000  1
  Br  Br6  1  0.71202966  0.00000000  0.71202966  1
  Br  Br7  1  0.28797034  0.00000000  0.28797034  1
  Br  Br8  1  1.00000000  0.71202966  0.71202966  1
  Br  Br9  1  0.00000000  0.28797034  0.28797034  1
  Br  Br10  1  0.25068404  0.75068404  0.50000000  1
  Br  Br11  1  0.74931596  0.24931596  0.50000000  1
  Br  Br12  1  0.75068404  0.50000000  0.25068404  1
  Br  Br13  1  0.24931596  0.50000000  0.74931596  1
  Br  Br14  1  0.50000000  0.25068404  0.75068404  1
  Br  Br15  1  0.50000000  0.74931596  0.24931596  1
