# generated using pymatgen
data_643_Al4Pb8
_symmetry_space_group_name_H-M   'Pnma'
_cell_length_a   4.91642427
_cell_length_b   7.06763384
_cell_length_c   9.48765579
_cell_angle_alpha   90.00000000
_cell_angle_beta   90.00000000
_cell_angle_gamma   90.00000000
_chemical_formula_structural   Al4Pb8
_chemical_formula_sum   'Al4 Pb8'
_cell_volume   329.67219188
loop_
 _symmetry_equiv_pos_site_id
 _symmetry_equiv_pos_as_xyz
  1  'x, y, z'
loop_
 _atom_type_symbol
  Al
  Pb
loop_
 _atom_site_type_symbol
 _atom_site_label
 _atom_site_symmetry_multiplicity
 _atom_site_fract_x
 _atom_site_fract_y
 _atom_site_fract_z
 _atom_site_occupancy
  Al  Al0  1  0.25000000  0.71481972  0.38922299  1
  Al  Al1  1  0.75000000  0.78518028  0.88922299  1
  Al  Al2  1  0.25000000  0.21481972  0.11077701  1
  Al  Al3  1  0.75000000  0.28518028  0.61077701  1
  Pb  Pb0  1  0.25000000  0.04022588  0.80332215  1
  Pb  Pb1  1  0.75000000  0.45977412  0.30332215  1
  Pb  Pb2  1  0.25000000  0.54022588  0.69667785  1
  Pb  Pb3  1  0.75000000  0.95977412  0.19667785  1
  Pb  Pb4  1  0.25000000  0.15808030  0.43318938  1
  Pb  Pb5  1  0.75000000  0.34191970  0.93318938  1
  Pb  Pb6  1  0.25000000  0.65808030  0.06681062  1
  Pb  Pb7  1  0.75000000  0.84191970  0.56681062  1
