# generated using pymatgen
data_645_CaBr3
_symmetry_space_group_name_H-M   'Immm'
_cell_length_a   7.07936274
_cell_length_b   7.07936274
_cell_length_c   7.07936274
_cell_angle_alpha   147.34808708
_cell_angle_beta   136.10873905
_cell_angle_gamma   55.76276465
_chemical_formula_structural   CaBr3
_chemical_formula_sum   'Br3 Ca1'
_cell_volume   131.78665870
loop_
 _symmetry_equiv_pos_site_id
 _symmetry_equiv_pos_as_xyz
  1  'x, y, z'
loop_
 _atom_type_symbol
  Br
  Ca
loop_
 _atom_site_type_symbol
 _atom_site_label
 _atom_site_symmetry_multiplicity
 _atom_site_fract_x
 _atom_site_fract_y
 _atom_site_fract_z
 _atom_site_occupancy
  Br  Br0  1  0.08046714  0.08046714  1.00000000  1
  Br  Br1  1  0.75000000  0.25000000  0.50000000  1
  Br  Br2  1  0.41953286  0.41953286  1.00000000  1
  Ca  Ca0  1  0.25000000  0.75000000  0.50000000  1
