# generated using pymatgen
data_64_Ag3Al5
_symmetry_space_group_name_H-M   'P1'
_cell_length_a   5.09708717
_cell_length_b   5.69856992
_cell_length_c   4.94251024
_cell_angle_alpha   90.06213234
_cell_angle_beta   99.73693277
_cell_angle_gamma   73.86586633
_chemical_formula_structural   Ag3Al5
_chemical_formula_sum   'Ag3 Al5'
_cell_volume   135.75986770
loop_
 _symmetry_equiv_pos_site_id
 _symmetry_equiv_pos_as_xyz
  1  'x, y, z'
loop_
 _atom_type_symbol
  Ag
  Al
loop_
 _atom_site_type_symbol
 _atom_site_label
 _atom_site_symmetry_multiplicity
 _atom_site_fract_x
 _atom_site_fract_y
 _atom_site_fract_z
 _atom_site_occupancy
  Ag  Ag0  1  0.00140495  0.99057756  0.99658742  1
  Ag  Ag1  1  0.49758826  0.11942929  0.25531137  1
  Ag  Ag2  1  0.50131546  0.39081813  0.75118667  1
  Al  Al0  1  0.00232584  0.24961007  0.49617772  1
  Al  Al1  1  0.99944094  0.49606584  0.99686758  1
  Al  Al2  1  0.50035547  0.62179222  0.25465008  1
  Al  Al3  1  0.99655149  0.74751047  0.49448524  1
  Al  Al4  1  0.50101760  0.88419642  0.75473392  1
