# generated using pymatgen
data_650_Mo5P24
_symmetry_space_group_name_H-M   'I-43m'
_cell_length_a   8.52575427
_cell_length_b   8.52575427
_cell_length_c   8.52575427
_cell_angle_alpha   109.47122063
_cell_angle_beta   109.47122063
_cell_angle_gamma   109.47122063
_chemical_formula_structural   Mo5P24
_chemical_formula_sum   'Mo5 P24'
_cell_volume   477.06388676
loop_
 _symmetry_equiv_pos_site_id
 _symmetry_equiv_pos_as_xyz
  1  'x, y, z'
loop_
 _atom_type_symbol
  Mo
  P
loop_
 _atom_site_type_symbol
 _atom_site_label
 _atom_site_symmetry_multiplicity
 _atom_site_fract_x
 _atom_site_fract_y
 _atom_site_fract_z
 _atom_site_occupancy
  Mo  Mo0  1  1.00000000  0.31347871  0.00000000  1
  Mo  Mo1  1  1.00000000  0.00000000  0.31347871  1
  Mo  Mo2  1  0.31347871  0.00000000  0.00000000  1
  Mo  Mo3  1  0.68652129  0.68652129  0.68652129  1
  Mo  Mo4  1  0.00000000  0.00000000  0.00000000  1
  P  P0  1  1.00000000  0.61753720  0.78074164  1
  P  P1  1  0.00000000  0.78074164  0.61753720  1
  P  P2  1  0.83679557  0.21925836  0.21925836  1
  P  P3  1  0.16320443  0.38246280  0.38246280  1
  P  P4  1  0.21925836  0.83679557  0.21925836  1
  P  P5  1  0.38246280  0.16320443  0.38246280  1
  P  P6  1  0.78074164  0.00000000  0.61753720  1
  P  P7  1  0.61753720  0.00000000  0.78074164  1
  P  P8  1  0.78074164  0.61753720  0.00000000  1
  P  P9  1  0.61753720  0.78074164  0.00000000  1
  P  P10  1  0.38246280  0.38246280  0.16320443  1
  P  P11  1  0.21925836  0.21925836  0.83679557  1
  P  P12  1  1.00000000  0.59325180  0.21978107  1
  P  P13  1  1.00000000  0.21978107  0.59325180  1
  P  P14  1  0.37347073  0.78021893  0.78021893  1
  P  P15  1  0.62652927  0.40674820  0.40674820  1
  P  P16  1  0.78021893  0.37347073  0.78021893  1
  P  P17  1  0.40674820  0.62652927  0.40674820  1
  P  P18  1  0.21978107  0.00000000  0.59325180  1
  P  P19  1  0.59325180  0.00000000  0.21978107  1
  P  P20  1  0.21978107  0.59325180  0.00000000  1
  P  P21  1  0.59325180  0.21978107  0.00000000  1
  P  P22  1  0.40674820  0.40674820  0.62652927  1
  P  P23  1  0.78021893  0.78021893  0.37347073  1
