# generated using pymatgen
data_651_Mo4P8
_symmetry_space_group_name_H-M   'Pa -3'
_cell_length_a   5.92845928
_cell_length_b   5.92845928
_cell_length_c   5.92845928
_cell_angle_alpha   90.00000000
_cell_angle_beta   90.00000000
_cell_angle_gamma   90.00000000
_chemical_formula_structural   Mo4P8
_chemical_formula_sum   'Mo4 P8'
_cell_volume   208.36536143
loop_
 _symmetry_equiv_pos_site_id
 _symmetry_equiv_pos_as_xyz
  1  'x, y, z'
loop_
 _atom_type_symbol
  Mo
  P
loop_
 _atom_site_type_symbol
 _atom_site_label
 _atom_site_symmetry_multiplicity
 _atom_site_fract_x
 _atom_site_fract_y
 _atom_site_fract_z
 _atom_site_occupancy
  Mo  Mo0  1  0.00000000  0.00000000  0.00000000  1
  Mo  Mo1  1  0.50000000  0.50000000  0.00000000  1
  Mo  Mo2  1  0.50000000  0.00000000  0.50000000  1
  Mo  Mo3  1  0.00000000  0.50000000  0.50000000  1
  P  P0  1  0.60957021  0.60957021  0.39042979  1
  P  P1  1  0.39042979  0.39042979  0.60957021  1
  P  P2  1  0.10957021  0.89042979  0.60957021  1
  P  P3  1  0.89042979  0.10957021  0.39042979  1
  P  P4  1  0.39042979  0.10957021  0.10957021  1
  P  P5  1  0.60957021  0.89042979  0.89042979  1
  P  P6  1  0.89042979  0.39042979  0.89042979  1
  P  P7  1  0.10957021  0.60957021  0.10957021  1
