# generated using pymatgen
data_653_NaP
_symmetry_space_group_name_H-M   'P-6m2'
_cell_length_a   3.20932813
_cell_length_b   3.20924145
_cell_length_c   4.58234637
_cell_angle_alpha   90.00000000
_cell_angle_beta   90.00000000
_cell_angle_gamma   120.00089339
_chemical_formula_structural   NaP
_chemical_formula_sum   'Na1 P1'
_cell_volume   40.87249513
loop_
 _symmetry_equiv_pos_site_id
 _symmetry_equiv_pos_as_xyz
  1  'x, y, z'
loop_
 _atom_type_symbol
  Na
  P
loop_
 _atom_site_type_symbol
 _atom_site_label
 _atom_site_symmetry_multiplicity
 _atom_site_fract_x
 _atom_site_fract_y
 _atom_site_fract_z
 _atom_site_occupancy
  Na  Na0  1  0.66666685  0.33333270  0.75000000  1
  P  P0  1  0.33333315  0.66666730  0.25000000  1
