# generated using pymatgen
data_660_Al3Ca
_symmetry_space_group_name_H-M   'Fm -3 m'
_cell_length_a   4.87724215
_cell_length_b   4.87724215
_cell_length_c   4.87724215
_cell_angle_alpha   60.00000000
_cell_angle_beta   60.00000000
_cell_angle_gamma   60.00000000
_chemical_formula_structural   Al3Ca
_chemical_formula_sum   'Al3 Ca1'
_cell_volume   82.03665770
loop_
 _symmetry_equiv_pos_site_id
 _symmetry_equiv_pos_as_xyz
  1  'x, y, z'
loop_
 _atom_type_symbol
  Al
  Ca
loop_
 _atom_site_type_symbol
 _atom_site_label
 _atom_site_symmetry_multiplicity
 _atom_site_fract_x
 _atom_site_fract_y
 _atom_site_fract_z
 _atom_site_occupancy
  Al  Al0  1  0.00000000  0.00000000  0.00000000  1
  Al  Al1  1  0.25000065  0.25000065  0.25000065  1
  Al  Al2  1  0.49999985  0.49999985  0.49999985  1
  Ca  Ca0  1  0.75000051  0.75000051  0.75000051  1
