# generated using pymatgen
data_66_CsSb
_symmetry_space_group_name_H-M   'P-6m2'
_cell_length_a   3.78185000
_cell_length_b   3.78177710
_cell_length_c   6.42373900
_cell_angle_alpha   90.00000000
_cell_angle_beta   90.00000000
_cell_angle_gamma   120.00063763
_chemical_formula_structural   CsSb
_chemical_formula_sum   'Cs1 Sb1'
_cell_volume   79.56388038
loop_
 _symmetry_equiv_pos_site_id
 _symmetry_equiv_pos_as_xyz
  1  'x, y, z'
loop_
 _atom_type_symbol
  Cs
  Sb
loop_
 _atom_site_type_symbol
 _atom_site_label
 _atom_site_symmetry_multiplicity
 _atom_site_fract_x
 _atom_site_fract_y
 _atom_site_fract_z
 _atom_site_occupancy
  Cs  Cs0  1  0.66666407  0.33333090  0.74999938  1
  Sb  Sb0  1  0.33333233  0.66666484  0.24999928  1
