# generated using pymatgen
data_671_NpPd
_symmetry_space_group_name_H-M   'R -3 m'
_cell_length_a   5.31592511
_cell_length_b   5.31592511
_cell_length_c   5.31592499
_cell_angle_alpha   30.44902397
_cell_angle_beta   30.44902397
_cell_angle_gamma   30.44903172
_chemical_formula_structural   NpPd
_chemical_formula_sum   'Np1 Pd1'
_cell_volume   34.19629471
loop_
 _symmetry_equiv_pos_site_id
 _symmetry_equiv_pos_as_xyz
  1  'x, y, z'
loop_
 _atom_type_symbol
  Np
  Pd
loop_
 _atom_site_type_symbol
 _atom_site_label
 _atom_site_symmetry_multiplicity
 _atom_site_fract_x
 _atom_site_fract_y
 _atom_site_fract_z
 _atom_site_occupancy
  Np  Np0  1  0.00000000  0.00000000  0.00000000  1
  Pd  Pd0  1  0.50000000  0.50000000  0.50000000  1
