# generated using pymatgen
data_672_Ba2Ta4
_symmetry_space_group_name_H-M   'Cmcm'
_cell_length_a   6.89910077
_cell_length_b   6.89910077
_cell_length_c   5.06729060
_cell_angle_alpha   90.00000000
_cell_angle_beta   90.00000000
_cell_angle_gamma   136.84910046
_chemical_formula_structural   Ba2Ta4
_chemical_formula_sum   'Ba2 Ta4'
_cell_volume   164.95575047
loop_
 _symmetry_equiv_pos_site_id
 _symmetry_equiv_pos_as_xyz
  1  'x, y, z'
loop_
 _atom_type_symbol
  Ba
  Ta
loop_
 _atom_site_type_symbol
 _atom_site_label
 _atom_site_symmetry_multiplicity
 _atom_site_fract_x
 _atom_site_fract_y
 _atom_site_fract_z
 _atom_site_occupancy
  Ba  Ba0  1  0.24327280  0.24327280  0.25000000  1
  Ba  Ba1  1  0.75672720  0.75672720  0.75000000  1
  Ta  Ta0  1  0.52074196  0.94079581  0.25000000  1
  Ta  Ta1  1  0.47925804  0.05920419  0.75000000  1
  Ta  Ta2  1  0.94079581  0.52074196  0.25000000  1
  Ta  Ta3  1  0.05920419  0.47925804  0.75000000  1
