# generated using pymatgen
data_675_AlRh3
_symmetry_space_group_name_H-M   'Pmmm'
_cell_length_a   2.78925805
_cell_length_b   3.72178234
_cell_length_c   5.43199803
_cell_angle_alpha   90.00000000
_cell_angle_beta   90.00000000
_cell_angle_gamma   90.00000000
_chemical_formula_structural   AlRh3
_chemical_formula_sum   'Al1 Rh3'
_cell_volume   56.38963321
loop_
 _symmetry_equiv_pos_site_id
 _symmetry_equiv_pos_as_xyz
  1  'x, y, z'
loop_
 _atom_type_symbol
  Al
  Rh
loop_
 _atom_site_type_symbol
 _atom_site_label
 _atom_site_symmetry_multiplicity
 _atom_site_fract_x
 _atom_site_fract_y
 _atom_site_fract_z
 _atom_site_occupancy
  Al  Al0  1  0.00000000  0.00000000  0.00000000  1
  Rh  Rh0  1  0.50000000  0.50000000  0.75314268  1
  Rh  Rh1  1  0.00000000  0.00000000  0.50000000  1
  Rh  Rh2  1  0.50000000  0.50000000  0.24685732  1
