# generated using pymatgen
data_683_Cr3Na
_symmetry_space_group_name_H-M   'Cmmm'
_cell_length_a   2.52228828
_cell_length_b   2.52228828
_cell_length_c   9.33009391
_cell_angle_alpha   90.00000000
_cell_angle_beta   90.00000000
_cell_angle_gamma   110.81099198
_chemical_formula_structural   Cr3Na
_chemical_formula_sum   'Cr3 Na1'
_cell_volume   55.48485194
loop_
 _symmetry_equiv_pos_site_id
 _symmetry_equiv_pos_as_xyz
  1  'x, y, z'
loop_
 _atom_type_symbol
  Cr
  Na
loop_
 _atom_site_type_symbol
 _atom_site_label
 _atom_site_symmetry_multiplicity
 _atom_site_fract_x
 _atom_site_fract_y
 _atom_site_fract_z
 _atom_site_occupancy
  Cr  Cr0  1  0.00000000  0.00000000  0.95636825  1
  Cr  Cr1  1  0.50000000  0.50000000  0.75000000  1
  Cr  Cr2  1  0.00000000  0.00000000  0.54363175  1
  Na  Na0  1  0.50000000  0.50000000  0.25000000  1
