# generated using pymatgen
data_691_AgNi2
_symmetry_space_group_name_H-M   'Immm'
_cell_length_a   4.96025409
_cell_length_b   4.96025409
_cell_length_c   4.96025409
_cell_angle_alpha   147.56561742
_cell_angle_beta   142.16821706
_cell_angle_gamma   50.66739534
_chemical_formula_structural   AgNi2
_chemical_formula_sum   'Ag1 Ni2'
_cell_volume   39.94694876
loop_
 _symmetry_equiv_pos_site_id
 _symmetry_equiv_pos_as_xyz
  1  'x, y, z'
loop_
 _atom_type_symbol
  Ag
  Ni
loop_
 _atom_site_type_symbol
 _atom_site_label
 _atom_site_symmetry_multiplicity
 _atom_site_fract_x
 _atom_site_fract_y
 _atom_site_fract_z
 _atom_site_occupancy
  Ag  Ag0  1  0.00000000  0.00000000  0.00000000  1
  Ni  Ni0  1  0.31173628  0.31173628  1.00000000  1
  Ni  Ni1  1  0.68826372  0.68826372  1.00000000  1
