# generated using pymatgen
data_698_TaGe2
_symmetry_space_group_name_H-M   'I4/mmm'
_cell_length_a   4.90044133
_cell_length_b   4.90044133
_cell_length_c   4.90044133
_cell_angle_alpha   139.49159864
_cell_angle_beta   139.49159864
_cell_angle_gamma   58.62605323
_chemical_formula_structural   TaGe2
_chemical_formula_sum   'Ge2 Ta1'
_cell_volume   49.19032972
loop_
 _symmetry_equiv_pos_site_id
 _symmetry_equiv_pos_as_xyz
  1  'x, y, z'
loop_
 _atom_type_symbol
  Ge
  Ta
loop_
 _atom_site_type_symbol
 _atom_site_label
 _atom_site_symmetry_multiplicity
 _atom_site_fract_x
 _atom_site_fract_y
 _atom_site_fract_z
 _atom_site_occupancy
  Ge  Ge0  1  0.99706646  0.99706646  0.00000000  1
  Ge  Ge1  1  0.66960021  0.66960021  0.00000000  1
  Ta  Ta0  1  0.33333333  0.33333333  0.00000000  1
