# generated using pymatgen
data_701_Fe2W4
_symmetry_space_group_name_H-M   'Cmcm'
_cell_length_a   3.15838308
_cell_length_b   6.58426073
_cell_length_c   4.36677664
_cell_angle_alpha   90.00000000
_cell_angle_beta   90.00000000
_cell_angle_gamma   76.12270156
_chemical_formula_structural   Fe2W4
_chemical_formula_sum   'Fe2 W4'
_cell_volume   88.15922308
loop_
 _symmetry_equiv_pos_site_id
 _symmetry_equiv_pos_as_xyz
  1  'x, y, z'
loop_
 _atom_type_symbol
  Fe
  W
loop_
 _atom_site_type_symbol
 _atom_site_label
 _atom_site_symmetry_multiplicity
 _atom_site_fract_x
 _atom_site_fract_y
 _atom_site_fract_z
 _atom_site_occupancy
  Fe  Fe0  1  0.91681129  0.16637743  0.25000000  1
  Fe  Fe1  1  0.08318871  0.83362257  0.75000000  1
  W  W0  1  0.57703657  0.84592686  0.25000000  1
  W  W1  1  0.42296343  0.15407314  0.75000000  1
  W  W2  1  0.24872400  0.50255201  0.25000000  1
  W  W3  1  0.75127600  0.49744799  0.75000000  1
