# generated using pymatgen
data_703_Pb5As
_symmetry_space_group_name_H-M   'Cmmm'
_cell_length_a   8.78046949
_cell_length_b   8.78046949
_cell_length_c   5.54352411
_cell_angle_alpha   90.00000000
_cell_angle_beta   90.00000000
_cell_angle_gamma   155.03221273
_chemical_formula_structural   Pb5As
_chemical_formula_sum   'As1 Pb5'
_cell_volume   180.40379601
loop_
 _symmetry_equiv_pos_site_id
 _symmetry_equiv_pos_as_xyz
  1  'x, y, z'
loop_
 _atom_type_symbol
  As
  Pb
loop_
 _atom_site_type_symbol
 _atom_site_label
 _atom_site_symmetry_multiplicity
 _atom_site_fract_x
 _atom_site_fract_y
 _atom_site_fract_z
 _atom_site_occupancy
  As  As0  1  0.97264574  0.02735426  0.00000000  1
  Pb  Pb0  1  0.33220599  0.66779401  0.00000000  1
  Pb  Pb1  1  0.61311608  0.38688392  0.00000000  1
  Pb  Pb2  1  0.47193216  0.52806784  0.50000000  1
  Pb  Pb3  1  0.80128308  0.19871692  0.50000000  1
  Pb  Pb4  1  0.14215028  0.85784972  0.50000000  1
