# generated using pymatgen
data_704_Cu7Pt5
_symmetry_space_group_name_H-M   'P1'
_cell_length_a   4.63575740
_cell_length_b   5.39481626
_cell_length_c   7.06657017
_cell_angle_alpha   78.74874278
_cell_angle_beta   96.42348857
_cell_angle_gamma   73.54251016
_chemical_formula_structural   Cu7Pt5
_chemical_formula_sum   'Cu7 Pt5'
_cell_volume   163.58450773
loop_
 _symmetry_equiv_pos_site_id
 _symmetry_equiv_pos_as_xyz
  1  'x, y, z'
loop_
 _atom_type_symbol
  Cu
  Pt
loop_
 _atom_site_type_symbol
 _atom_site_label
 _atom_site_symmetry_multiplicity
 _atom_site_fract_x
 _atom_site_fract_y
 _atom_site_fract_z
 _atom_site_occupancy
  Cu  Cu0  1  0.99920143  0.00309666  0.00606510  1
  Cu  Cu1  1  0.49897843  0.08570904  0.16622765  1
  Cu  Cu2  1  0.99834354  0.16968318  0.32696453  1
  Cu  Cu3  1  0.49689941  0.25200083  0.49586792  1
  Cu  Cu4  1  0.50370368  0.41190638  0.83859544  1
  Cu  Cu5  1  0.00312775  0.49288216  0.00579197  1
  Cu  Cu6  1  0.99954935  0.66721506  0.32763800  1
  Pt  Pt0  1  0.99934043  0.33439223  0.66733416  1
  Pt  Pt1  1  0.50120940  0.57126097  0.16735787  1
  Pt  Pt2  1  0.49359350  0.75805786  0.49180600  1
  Pt  Pt3  1  0.00028738  0.83407758  0.66647531  1
  Pt  Pt4  1  0.50576572  0.91971804  0.83987605  1
