# generated using pymatgen
data_706_Ta4V6
_symmetry_space_group_name_H-M   'Fdd2'
_cell_length_a   5.43730819
_cell_length_b   5.43730819
_cell_length_c   6.84960763
_cell_angle_alpha   79.38346775
_cell_angle_beta   79.38346775
_cell_angle_gamma   122.39973012
_chemical_formula_structural   Ta4V6
_chemical_formula_sum   'Ta4 V6'
_cell_volume   157.98355476
loop_
 _symmetry_equiv_pos_site_id
 _symmetry_equiv_pos_as_xyz
  1  'x, y, z'
loop_
 _atom_type_symbol
  Ta
  V
loop_
 _atom_site_type_symbol
 _atom_site_label
 _atom_site_symmetry_multiplicity
 _atom_site_fract_x
 _atom_site_fract_y
 _atom_site_fract_z
 _atom_site_occupancy
  Ta  Ta0  1  0.61962150  0.27174554  0.88879879  1
  Ta  Ta1  1  0.16054433  0.50842029  0.11120121  1
  Ta  Ta2  1  0.25842029  0.41054433  0.61120121  1
  Ta  Ta3  1  0.02174554  0.86962150  0.38879879  1
  V  V0  1  0.65985706  0.81059279  0.77233178  1
  V  V1  1  0.58292457  0.43218883  0.22766822  1
  V  V2  1  0.18218883  0.83292457  0.72766822  1
  V  V3  1  0.56059279  0.90985706  0.27233178  1
  V  V4  1  0.97705255  0.97705255  0.00000000  1
  V  V5  1  0.72705255  0.22705255  0.50000000  1
