# generated using pymatgen
data_708_Fe4Pd8
_symmetry_space_group_name_H-M   'Pa -3'
_cell_length_a   5.77258331
_cell_length_b   5.77258331
_cell_length_c   5.77258331
_cell_angle_alpha   90.00000000
_cell_angle_beta   90.00000000
_cell_angle_gamma   90.00000000
_chemical_formula_structural   Fe4Pd8
_chemical_formula_sum   'Fe4 Pd8'
_cell_volume   192.35816618
loop_
 _symmetry_equiv_pos_site_id
 _symmetry_equiv_pos_as_xyz
  1  'x, y, z'
loop_
 _atom_type_symbol
  Fe
  Pd
loop_
 _atom_site_type_symbol
 _atom_site_label
 _atom_site_symmetry_multiplicity
 _atom_site_fract_x
 _atom_site_fract_y
 _atom_site_fract_z
 _atom_site_occupancy
  Fe  Fe0  1  0.00000000  0.00000000  0.00000000  1
  Fe  Fe1  1  0.00000000  0.50000000  0.50000000  1
  Fe  Fe2  1  0.50000000  0.00000000  0.50000000  1
  Fe  Fe3  1  0.50000000  0.50000000  0.00000000  1
  Pd  Pd0  1  0.13178806  0.63178806  0.86821194  1
  Pd  Pd1  1  0.13178806  0.86821194  0.36821194  1
  Pd  Pd2  1  0.36821194  0.13178806  0.86821194  1
  Pd  Pd3  1  0.36821194  0.36821194  0.36821194  1
  Pd  Pd4  1  0.63178806  0.63178806  0.63178806  1
  Pd  Pd5  1  0.63178806  0.86821194  0.13178806  1
  Pd  Pd6  1  0.86821194  0.13178806  0.63178806  1
  Pd  Pd7  1  0.86821194  0.36821194  0.13178806  1
