# generated using pymatgen
data_709_CeTa
_symmetry_space_group_name_H-M   'P-6m2'
_cell_length_a   3.19848900
_cell_length_b   3.19848119
_cell_length_c   5.62807100
_cell_angle_alpha   90.00000000
_cell_angle_beta   90.00000000
_cell_angle_gamma   120.00007042
_chemical_formula_structural   CeTa
_chemical_formula_sum   'Ce1 Ta1'
_cell_volume   49.86301717
loop_
 _symmetry_equiv_pos_site_id
 _symmetry_equiv_pos_as_xyz
  1  'x, y, z'
loop_
 _atom_type_symbol
  Ce
  Ta
loop_
 _atom_site_type_symbol
 _atom_site_label
 _atom_site_symmetry_multiplicity
 _atom_site_fract_x
 _atom_site_fract_y
 _atom_site_fract_z
 _atom_site_occupancy
  Ce  Ce0  1  0.66666816  0.33333287  0.74999944  1
  Ta  Ta0  1  0.33333287  0.66666575  0.25000040  1
