# generated using pymatgen
data_713_Ir18Ta6
_symmetry_space_group_name_H-M   'Pmmn'
_cell_length_a   5.57104135
_cell_length_b   4.84070988
_cell_length_c   13.54118715
_cell_angle_alpha   90.00000434
_cell_angle_beta   90.00000000
_cell_angle_gamma   90.00000000
_chemical_formula_structural   Ir18Ta6
_chemical_formula_sum   'Ir18 Ta6'
_cell_volume   365.17595783
loop_
 _symmetry_equiv_pos_site_id
 _symmetry_equiv_pos_as_xyz
  1  'x, y, z'
loop_
 _atom_type_symbol
  Ir
  Ta
loop_
 _atom_site_type_symbol
 _atom_site_label
 _atom_site_symmetry_multiplicity
 _atom_site_fract_x
 _atom_site_fract_y
 _atom_site_fract_z
 _atom_site_occupancy
  Ir  Ir0  1  0.99998883  0.16313184  0.58345698  1
  Ir  Ir1  1  0.99998904  0.16313447  0.91652064  1
  Ir  Ir2  1  0.00358290  0.50325556  0.24998603  1
  Ir  Ir3  1  0.99641253  0.49674586  0.74999196  1
  Ir  Ir4  1  0.00001504  0.83686035  0.08348538  1
  Ir  Ir5  1  0.00001495  0.83686237  0.41649222  1
  Ir  Ir6  1  0.25000000  0.00660263  0.74999293  1
  Ir  Ir7  1  0.25000000  0.33534637  0.08377618  1
  Ir  Ir8  1  0.25000000  0.33534132  0.41619952  1
  Ir  Ir9  1  0.50001117  0.16313184  0.58345698  1
  Ir  Ir10  1  0.50001096  0.16313447  0.91652064  1
  Ir  Ir11  1  0.49641710  0.50325556  0.24998603  1
  Ir  Ir12  1  0.50358747  0.49674586  0.74999196  1
  Ir  Ir13  1  0.49998496  0.83686035  0.08348538  1
  Ir  Ir14  1  0.49998505  0.83686237  0.41649222  1
  Ir  Ir15  1  0.75000000  0.99338492  0.24998631  1
  Ir  Ir16  1  0.75000000  0.66466703  0.58374935  1
  Ir  Ir17  1  0.75000000  0.66465869  0.91622872  1
  Ta  Ta0  1  0.25000000  0.00188859  0.24999095  1
  Ta  Ta1  1  0.25000000  0.66704624  0.58692523  1
  Ta  Ta2  1  0.25000000  0.66704081  0.91305259  1
  Ta  Ta3  1  0.75000000  0.99812486  0.74998838  1
  Ta  Ta4  1  0.75000000  0.33296159  0.08693269  1
  Ta  Ta5  1  0.75000000  0.33295603  0.41304406  1
