# generated using pymatgen
data_714_Fe2Pd26
_symmetry_space_group_name_H-M   'Fm -3 c'
_cell_length_a   8.82495634
_cell_length_b   8.82495634
_cell_length_c   8.82495634
_cell_angle_alpha   60.00000000
_cell_angle_beta   60.00000000
_cell_angle_gamma   60.00000000
_chemical_formula_structural   Fe2Pd26
_chemical_formula_sum   'Fe2 Pd26'
_cell_volume   485.98481347
loop_
 _symmetry_equiv_pos_site_id
 _symmetry_equiv_pos_as_xyz
  1  'x, y, z'
loop_
 _atom_type_symbol
  Fe
  Pd
loop_
 _atom_site_type_symbol
 _atom_site_label
 _atom_site_symmetry_multiplicity
 _atom_site_fract_x
 _atom_site_fract_y
 _atom_site_fract_z
 _atom_site_occupancy
  Fe  Fe0  1  0.25000000  0.25000000  0.25000000  1
  Fe  Fe1  1  0.75000000  0.75000000  0.75000000  1
  Pd  Pd0  1  0.30019412  0.69980588  0.06208458  1
  Pd  Pd1  1  0.06208458  0.93791542  0.30019412  1
  Pd  Pd2  1  0.93791542  0.06208458  0.69980588  1
  Pd  Pd3  1  0.69980588  0.30019412  0.93791542  1
  Pd  Pd4  1  0.93791542  0.69980588  0.30019412  1
  Pd  Pd5  1  0.69980588  0.93791542  0.06208458  1
  Pd  Pd6  1  0.30019412  0.06208458  0.93791542  1
  Pd  Pd7  1  0.06208458  0.30019412  0.69980588  1
  Pd  Pd8  1  0.06208458  0.69980588  0.93791542  1
  Pd  Pd9  1  0.30019412  0.93791542  0.69980588  1
  Pd  Pd10  1  0.69980588  0.06208458  0.30019412  1
  Pd  Pd11  1  0.93791542  0.30019412  0.06208458  1
  Pd  Pd12  1  0.19980588  0.56208458  0.43791542  1
  Pd  Pd13  1  0.43791542  0.80019412  0.19980588  1
  Pd  Pd14  1  0.56208458  0.19980588  0.80019412  1
  Pd  Pd15  1  0.80019412  0.43791542  0.56208458  1
  Pd  Pd16  1  0.56208458  0.43791542  0.19980588  1
  Pd  Pd17  1  0.80019412  0.19980588  0.43791542  1
  Pd  Pd18  1  0.19980588  0.80019412  0.56208458  1
  Pd  Pd19  1  0.43791542  0.56208458  0.80019412  1
  Pd  Pd20  1  0.43791542  0.19980588  0.56208458  1
  Pd  Pd21  1  0.19980588  0.43791542  0.80019412  1
  Pd  Pd22  1  0.80019412  0.56208458  0.19980588  1
  Pd  Pd23  1  0.56208458  0.80019412  0.43791542  1
  Pd  Pd24  1  0.00000000  0.00000000  0.00000000  1
  Pd  Pd25  1  0.50000000  0.50000000  0.50000000  1
