# generated using pymatgen
data_71_Au6Mn2
_symmetry_space_group_name_H-M   'Cmcm'
_cell_length_a   5.75134954
_cell_length_b   5.84984679
_cell_length_c   4.81751762
_cell_angle_alpha   90.00000000
_cell_angle_beta   90.00000000
_cell_angle_gamma   120.56815708
_chemical_formula_structural   Au6Mn2
_chemical_formula_sum   'Au6 Mn2'
_cell_volume   139.55751480
loop_
 _symmetry_equiv_pos_site_id
 _symmetry_equiv_pos_as_xyz
  1  'x, y, z'
loop_
 _atom_type_symbol
  Au
  Mn
loop_
 _atom_site_type_symbol
 _atom_site_label
 _atom_site_symmetry_multiplicity
 _atom_site_fract_x
 _atom_site_fract_y
 _atom_site_fract_z
 _atom_site_occupancy
  Au  Au0  1  0.98065333  0.99032666  0.00000000  1
  Au  Au1  1  0.47000437  0.49445305  0.00000000  1
  Au  Au2  1  0.47000437  0.97555132  0.00000000  1
  Au  Au3  1  0.35268000  0.17634000  0.50000000  1
  Au  Au4  1  0.86332896  0.67221362  0.50000000  1
  Au  Au5  1  0.86332896  0.19111534  0.50000000  1
  Mn  Mn0  1  0.96194595  0.48097298  0.00000000  1
  Mn  Mn1  1  0.37138738  0.68569369  0.50000000  1
