# generated using pymatgen
data_722_Al14Th4
_symmetry_space_group_name_H-M   'Pbam'
_cell_length_a   11.47580100
_cell_length_b   5.87166000
_cell_length_c   5.55272300
_cell_angle_alpha   90.00000000
_cell_angle_beta   90.00000000
_cell_angle_gamma   90.00000000
_chemical_formula_structural   Al14Th4
_chemical_formula_sum   'Al14 Th4'
_cell_volume   374.15359062
loop_
 _symmetry_equiv_pos_site_id
 _symmetry_equiv_pos_as_xyz
  1  'x, y, z'
loop_
 _atom_type_symbol
  Al
  Th
loop_
 _atom_site_type_symbol
 _atom_site_label
 _atom_site_symmetry_multiplicity
 _atom_site_fract_x
 _atom_site_fract_y
 _atom_site_fract_z
 _atom_site_occupancy
  Al  Al0  1  0.40865905  0.14791389  0.23791029  1
  Al  Al1  1  0.90865900  0.35208614  0.23791029  1
  Al  Al2  1  0.09134090  0.64791391  0.23791029  1
  Al  Al3  1  0.59134085  0.85208617  0.23791029  1
  Al  Al4  1  0.00000000  0.00000000  0.49999971  1
  Al  Al5  1  0.74832858  0.09672052  0.49999971  1
  Al  Al6  1  0.24832863  0.40327950  0.49999971  1
  Al  Al7  1  0.49999995  0.50000003  0.49999971  1
  Al  Al8  1  0.75167127  0.59672055  0.49999971  1
  Al  Al9  1  0.25167132  0.90327953  0.49999971  1
  Al  Al10  1  0.40865905  0.14791389  0.76209093  1
  Al  Al11  1  0.90865900  0.35208614  0.76209093  1
  Al  Al12  1  0.09134090  0.64791391  0.76209093  1
  Al  Al13  1  0.59134085  0.85208617  0.76209093  1
  Th  Th0  1  0.14701893  0.14434249  0.00000000  1
  Th  Th1  1  0.64701888  0.35565753  0.00000000  1
  Th  Th2  1  0.35298102  0.64434252  0.00000000  1
  Th  Th3  1  0.85298097  0.85565756  0.00000000  1
