# generated using pymatgen
data_734_Fe3Ir4
_symmetry_space_group_name_H-M   'I4/mmm'
_cell_length_a   3.16094428
_cell_length_b   9.52245289
_cell_length_c   3.16094428
_cell_angle_alpha   80.44622472
_cell_angle_beta   90.00000000
_cell_angle_gamma   99.55377528
_chemical_formula_structural   Fe3Ir4
_chemical_formula_sum   'Fe3 Ir4'
_cell_volume   92.48616402
loop_
 _symmetry_equiv_pos_site_id
 _symmetry_equiv_pos_as_xyz
  1  'x, y, z'
loop_
 _atom_type_symbol
  Fe
  Ir
loop_
 _atom_site_type_symbol
 _atom_site_label
 _atom_site_symmetry_multiplicity
 _atom_site_fract_x
 _atom_site_fract_y
 _atom_site_fract_z
 _atom_site_occupancy
  Fe  Fe0  1  0.00000000  0.00000000  0.00000000  1
  Fe  Fe1  1  0.28111037  0.56222075  0.71888963  1
  Fe  Fe2  1  0.71888963  0.43777925  0.28111037  1
  Ir  Ir0  1  0.14965190  0.29930379  0.85034810  1
  Ir  Ir1  1  0.85034810  0.70069621  0.14965190  1
  Ir  Ir2  1  0.43128464  0.86256928  0.56871536  1
  Ir  Ir3  1  0.56871536  0.13743072  0.43128464  1
