# generated using pymatgen
data_741_Cr6Ge2
_symmetry_space_group_name_H-M   'Pm -3 n'
_cell_length_a   4.57367409
_cell_length_b   4.57367409
_cell_length_c   4.57367409
_cell_angle_alpha   90.00000000
_cell_angle_beta   90.00000000
_cell_angle_gamma   90.00000000
_chemical_formula_structural   Cr6Ge2
_chemical_formula_sum   'Cr6 Ge2'
_cell_volume   95.67437713
loop_
 _symmetry_equiv_pos_site_id
 _symmetry_equiv_pos_as_xyz
  1  'x, y, z'
loop_
 _atom_type_symbol
  Cr
  Ge
loop_
 _atom_site_type_symbol
 _atom_site_label
 _atom_site_symmetry_multiplicity
 _atom_site_fract_x
 _atom_site_fract_y
 _atom_site_fract_z
 _atom_site_occupancy
  Cr  Cr0  1  0.50000000  0.25000000  0.00000000  1
  Cr  Cr1  1  0.50000000  0.75000000  0.00000000  1
  Cr  Cr2  1  0.00000000  0.50000000  0.25000000  1
  Cr  Cr3  1  0.25000000  0.00000000  0.50000000  1
  Cr  Cr4  1  0.75000000  0.00000000  0.50000000  1
  Cr  Cr5  1  0.00000000  0.50000000  0.75000000  1
  Ge  Ge0  1  0.00000000  0.00000000  0.00000000  1
  Ge  Ge1  1  0.50000000  0.50000000  0.50000000  1
