# generated using pymatgen
data_746_GaAs2
_symmetry_space_group_name_H-M   'I4/mmm'
_cell_length_a   5.94737461
_cell_length_b   5.94737461
_cell_length_c   5.94737461
_cell_angle_alpha   146.58560870
_cell_angle_beta   146.58560870
_cell_angle_gamma   47.97775049
_chemical_formula_structural   GaAs2
_chemical_formula_sum   'As2 Ga1'
_cell_volume   63.53620710
loop_
 _symmetry_equiv_pos_site_id
 _symmetry_equiv_pos_as_xyz
  1  'x, y, z'
loop_
 _atom_type_symbol
  As
  Ga
loop_
 _atom_site_type_symbol
 _atom_site_label
 _atom_site_symmetry_multiplicity
 _atom_site_fract_x
 _atom_site_fract_y
 _atom_site_fract_z
 _atom_site_occupancy
  As  As0  1  0.30411638  0.30411638  0.00000000  1
  As  As1  1  0.69588362  0.69588362  0.00000000  1
  Ga  Ga0  1  0.00000000  0.00000000  0.00000000  1
