# generated using pymatgen
data_765_K2As2
_symmetry_space_group_name_H-M   'P4/nmm'
_cell_length_a   3.71932537
_cell_length_b   3.71932537
_cell_length_c   9.91480942
_cell_angle_alpha   90.00000000
_cell_angle_beta   90.00000000
_cell_angle_gamma   90.00000000
_chemical_formula_structural   K2As2
_chemical_formula_sum   'As2 K2'
_cell_volume   137.15533831
loop_
 _symmetry_equiv_pos_site_id
 _symmetry_equiv_pos_as_xyz
  1  'x, y, z'
loop_
 _atom_type_symbol
  As
  K
loop_
 _atom_site_type_symbol
 _atom_site_label
 _atom_site_symmetry_multiplicity
 _atom_site_fract_x
 _atom_site_fract_y
 _atom_site_fract_z
 _atom_site_occupancy
  As  As0  1  0.00000000  0.00000000  0.91923017  1
  As  As1  1  0.50000000  0.50000000  0.83076983  1
  K  K0  1  0.00000000  0.00000000  0.58773989  1
  K  K1  1  0.50000000  0.50000000  0.16226011  1
