# generated using pymatgen
data_776_As17Br12
_symmetry_space_group_name_H-M   'I-43m'
_cell_length_a   10.41990099
_cell_length_b   10.41990099
_cell_length_c   10.41990099
_cell_angle_alpha   109.47122063
_cell_angle_beta   109.47122063
_cell_angle_gamma   109.47122063
_chemical_formula_structural   As17Br12
_chemical_formula_sum   'As17 Br12'
_cell_volume   870.90119379
loop_
 _symmetry_equiv_pos_site_id
 _symmetry_equiv_pos_as_xyz
  1  'x, y, z'
loop_
 _atom_type_symbol
  As
  Br
loop_
 _atom_site_type_symbol
 _atom_site_label
 _atom_site_symmetry_multiplicity
 _atom_site_fract_x
 _atom_site_fract_y
 _atom_site_fract_z
 _atom_site_occupancy
  As  As0  1  0.74170758  0.14014818  0.74170758  1
  As  As1  1  0.60155940  0.85985182  0.60155940  1
  As  As2  1  0.25829242  0.00000000  0.39844060  1
  As  As3  1  0.39844060  0.00000000  0.25829242  1
  As  As4  1  0.25829242  0.39844060  0.00000000  1
  As  As5  1  0.39844060  0.25829242  0.00000000  1
  As  As6  1  0.60155940  0.60155940  0.85985182  1
  As  As7  1  0.74170758  0.74170758  0.14014818  1
  As  As8  1  1.00000000  0.39844060  0.25829242  1
  As  As9  1  1.00000000  0.25829242  0.39844060  1
  As  As10  1  0.14014818  0.74170758  0.74170758  1
  As  As11  1  0.85985182  0.60155940  0.60155940  1
  As  As12  1  0.00000000  0.24270226  0.00000000  1
  As  As13  1  0.75729774  0.75729774  0.75729774  1
  As  As14  1  0.00000000  0.00000000  0.24270226  1
  As  As15  1  0.24270226  0.00000000  0.00000000  1
  As  As16  1  0.00000000  0.00000000  0.00000000  1
  Br  Br0  1  0.21797621  0.70915907  0.21797621  1
  Br  Br1  1  0.50881714  0.29084093  0.50881714  1
  Br  Br2  1  0.78202379  0.00000000  0.49118286  1
  Br  Br3  1  0.49118286  0.00000000  0.78202379  1
  Br  Br4  1  0.78202379  0.49118286  0.00000000  1
  Br  Br5  1  0.49118286  0.78202379  0.00000000  1
  Br  Br6  1  0.50881714  0.50881714  0.29084093  1
  Br  Br7  1  0.21797621  0.21797621  0.70915907  1
  Br  Br8  1  1.00000000  0.49118286  0.78202379  1
  Br  Br9  1  1.00000000  0.78202379  0.49118286  1
  Br  Br10  1  0.70915907  0.21797621  0.21797621  1
  Br  Br11  1  0.29084093  0.50881714  0.50881714  1
