# generated using pymatgen
data_77_Au4Mn
_symmetry_space_group_name_H-M   'Immm'
_cell_length_a   3.14581735
_cell_length_b   7.75008776
_cell_length_c   3.79215876
_cell_angle_alpha   75.83869362
_cell_angle_beta   90.00000000
_cell_angle_gamma   78.29026555
_chemical_formula_structural   Au4Mn
_chemical_formula_sum   'Au4 Mn1'
_cell_volume   87.65881324
loop_
 _symmetry_equiv_pos_site_id
 _symmetry_equiv_pos_as_xyz
  1  'x, y, z'
loop_
 _atom_type_symbol
  Au
  Mn
loop_
 _atom_site_type_symbol
 _atom_site_label
 _atom_site_symmetry_multiplicity
 _atom_site_fract_x
 _atom_site_fract_y
 _atom_site_fract_z
 _atom_site_occupancy
  Au  Au0  1  0.00513572  0.98972856  0.00513572  1
  Au  Au1  1  0.40229132  0.19541736  0.40229132  1
  Au  Au2  1  0.79770868  0.40458264  0.79770868  1
  Au  Au3  1  0.19486428  0.61027144  0.19486428  1
  Mn  Mn0  1  0.60000000  0.80000000  0.60000000  1
