# generated using pymatgen
data_780_NiTa
_symmetry_space_group_name_H-M   'P-6m2'
_cell_length_a   2.81490900
_cell_length_b   2.81490085
_cell_length_c   4.28469000
_cell_angle_alpha   90.00000000
_cell_angle_beta   90.00000000
_cell_angle_gamma   120.00010757
_chemical_formula_structural   NiTa
_chemical_formula_sum   'Ni1 Ta1'
_cell_volume   29.40201049
loop_
 _symmetry_equiv_pos_site_id
 _symmetry_equiv_pos_as_xyz
  1  'x, y, z'
loop_
 _atom_type_symbol
  Ni
  Ta
loop_
 _atom_site_type_symbol
 _atom_site_label
 _atom_site_symmetry_multiplicity
 _atom_site_fract_x
 _atom_site_fract_y
 _atom_site_fract_z
 _atom_site_occupancy
  Ni  Ni0  1  0.66666843  0.33333296  0.75000059  1
  Ta  Ta0  1  0.33333308  0.66666591  0.24999942  1
