# generated using pymatgen
data_782_FeIr2
_symmetry_space_group_name_H-M   'I4/mmm'
_cell_length_a   5.87438593
_cell_length_b   5.87438593
_cell_length_c   5.87438593
_cell_angle_alpha   153.69261092
_cell_angle_beta   153.69261092
_cell_angle_gamma   37.54654288
_chemical_formula_structural   FeIr2
_chemical_formula_sum   'Fe1 Ir2'
_cell_volume   39.75689162
loop_
 _symmetry_equiv_pos_site_id
 _symmetry_equiv_pos_as_xyz
  1  'x, y, z'
loop_
 _atom_type_symbol
  Fe
  Ir
loop_
 _atom_site_type_symbol
 _atom_site_label
 _atom_site_symmetry_multiplicity
 _atom_site_fract_x
 _atom_site_fract_y
 _atom_site_fract_z
 _atom_site_occupancy
  Fe  Fe0  1  0.50000000  0.50000000  0.00000000  1
  Ir  Ir0  1  0.15982179  0.15982179  0.00000000  1
  Ir  Ir1  1  0.84017821  0.84017821  0.00000000  1
