# generated using pymatgen
data_788_CrTa3
_symmetry_space_group_name_H-M   'Immm'
_cell_length_a   3.18949310
_cell_length_b   5.32430421
_cell_length_c   4.60377435
_cell_angle_alpha   115.42483257
_cell_angle_beta   90.00000000
_cell_angle_gamma   107.42889906
_chemical_formula_structural   CrTa3
_chemical_formula_sum   'Cr1 Ta3'
_cell_volume   66.61261130
loop_
 _symmetry_equiv_pos_site_id
 _symmetry_equiv_pos_as_xyz
  1  'x, y, z'
loop_
 _atom_type_symbol
  Cr
  Ta
loop_
 _atom_site_type_symbol
 _atom_site_label
 _atom_site_symmetry_multiplicity
 _atom_site_fract_x
 _atom_site_fract_y
 _atom_site_fract_z
 _atom_site_occupancy
  Cr  Cr0  1  0.00000000  0.00000000  0.00000000  1
  Ta  Ta0  1  0.73494671  0.46989342  0.23432430  1
  Ta  Ta1  1  0.50000000  0.00000000  0.50000000  1
  Ta  Ta2  1  0.26505329  0.53010658  0.76567570  1
