# generated using pymatgen
data_78_Ni4Sb2
_symmetry_space_group_name_H-M   'I4_1/amd'
_cell_length_a   8.71801558
_cell_length_b   8.71801558
_cell_length_c   8.71801558
_cell_angle_alpha   157.90908776
_cell_angle_beta   157.86291421
_cell_angle_gamma   31.47443541
_chemical_formula_structural   Ni4Sb2
_chemical_formula_sum   'Ni4 Sb2'
_cell_volume   93.83213732
loop_
 _symmetry_equiv_pos_site_id
 _symmetry_equiv_pos_as_xyz
  1  'x, y, z'
loop_
 _atom_type_symbol
  Ni
  Sb
loop_
 _atom_site_type_symbol
 _atom_site_label
 _atom_site_symmetry_multiplicity
 _atom_site_fract_x
 _atom_site_fract_y
 _atom_site_fract_z
 _atom_site_occupancy
  Ni  Ni0  1  0.69923421  0.94923421  0.75000000  1
  Ni  Ni1  1  0.30076579  0.05076579  0.25000000  1
  Ni  Ni2  1  0.55081818  0.80081818  0.75000000  1
  Ni  Ni3  1  0.44918182  0.19918182  0.25000000  1
  Sb  Sb0  1  0.12504027  0.37504027  0.75000000  1
  Sb  Sb1  1  0.87495973  0.62495973  0.25000000  1
