# generated using pymatgen
data_798_Ba2Sn4
_symmetry_space_group_name_H-M   'Cmcm'
_cell_length_a   6.81130380
_cell_length_b   6.81130380
_cell_length_c   5.77522254
_cell_angle_alpha   90.00000000
_cell_angle_beta   90.00000000
_cell_angle_gamma   130.57524573
_chemical_formula_structural   Ba2Sn4
_chemical_formula_sum   'Ba2 Sn4'
_cell_volume   203.51056778
loop_
 _symmetry_equiv_pos_site_id
 _symmetry_equiv_pos_as_xyz
  1  'x, y, z'
loop_
 _atom_type_symbol
  Ba
  Sn
loop_
 _atom_site_type_symbol
 _atom_site_label
 _atom_site_symmetry_multiplicity
 _atom_site_fract_x
 _atom_site_fract_y
 _atom_site_fract_z
 _atom_site_occupancy
  Ba  Ba0  1  0.24586267  0.24586267  0.25000000  1
  Ba  Ba1  1  0.75413733  0.75413733  0.75000000  1
  Sn  Sn0  1  0.54074415  0.94149485  0.25000000  1
  Sn  Sn1  1  0.45925585  0.05850515  0.75000000  1
  Sn  Sn2  1  0.94149485  0.54074415  0.25000000  1
  Sn  Sn3  1  0.05850515  0.45925585  0.75000000  1
