# generated using pymatgen
data_79_Ag2Al6
_symmetry_space_group_name_H-M   'I4/mmm'
_cell_length_a   4.06991176
_cell_length_b   8.68318074
_cell_length_c   4.06991175
_cell_angle_alpha   103.55364501
_cell_angle_beta   90.00000003
_cell_angle_gamma   76.44635502
_chemical_formula_structural   Ag2Al6
_chemical_formula_sum   'Ag2 Al6'
_cell_volume   135.70054914
loop_
 _symmetry_equiv_pos_site_id
 _symmetry_equiv_pos_as_xyz
  1  'x, y, z'
loop_
 _atom_type_symbol
  Ag
  Al
loop_
 _atom_site_type_symbol
 _atom_site_label
 _atom_site_symmetry_multiplicity
 _atom_site_fract_x
 _atom_site_fract_y
 _atom_site_fract_z
 _atom_site_occupancy
  Ag  Ag0  1  0.00126890  0.99746220  0.99873110  1
  Ag  Ag1  1  0.74873110  0.50253780  0.25126890  1
  Al  Al0  1  0.37500000  0.25000000  0.12500000  1
  Al  Al1  1  0.12500000  0.75000000  0.37500000  1
  Al  Al2  1  0.49907213  0.00185574  0.50092787  1
  Al  Al3  1  0.87500000  0.25000000  0.62500000  1
  Al  Al4  1  0.25092787  0.49814426  0.74907213  1
  Al  Al5  1  0.62500000  0.75000000  0.87500000  1
