# generated using pymatgen
data_808_In5Ta3
_symmetry_space_group_name_H-M   'Cmmm'
_cell_length_a   6.36709447
_cell_length_b   6.36709447
_cell_length_c   4.04789166
_cell_angle_alpha   90.00000000
_cell_angle_beta   90.00000000
_cell_angle_gamma   85.68877634
_chemical_formula_structural   In5Ta3
_chemical_formula_sum   'In5 Ta3'
_cell_volume   163.63675451
loop_
 _symmetry_equiv_pos_site_id
 _symmetry_equiv_pos_as_xyz
  1  'x, y, z'
loop_
 _atom_type_symbol
  In
  Ta
loop_
 _atom_site_type_symbol
 _atom_site_label
 _atom_site_symmetry_multiplicity
 _atom_site_fract_x
 _atom_site_fract_y
 _atom_site_fract_z
 _atom_site_occupancy
  In  In0  1  0.00000000  0.00000000  0.00000000  1
  In  In1  1  0.00000000  0.50000000  0.00000000  1
  In  In2  1  0.50000000  1.00000000  0.00000000  1
  In  In3  1  0.26023891  0.26023891  0.50000000  1
  In  In4  1  0.73976109  0.73976109  0.50000000  1
  Ta  Ta0  1  0.50000000  0.50000000  0.00000000  1
  Ta  Ta1  1  0.75040199  0.24959801  0.50000000  1
  Ta  Ta2  1  0.24959801  0.75040199  0.50000000  1
