# generated using pymatgen
data_80_Ag4Al5
_symmetry_space_group_name_H-M   'I4/mmm'
_cell_length_a   6.47005811
_cell_length_b   6.47005811
_cell_length_c   6.47005811
_cell_angle_alpha   95.65672289
_cell_angle_beta   95.65672289
_cell_angle_gamma   143.40444655
_chemical_formula_structural   Ag4Al5
_chemical_formula_sum   'Ag4 Al5'
_cell_volume   153.30478215
loop_
 _symmetry_equiv_pos_site_id
 _symmetry_equiv_pos_as_xyz
  1  'x, y, z'
loop_
 _atom_type_symbol
  Ag
  Al
loop_
 _atom_site_type_symbol
 _atom_site_label
 _atom_site_symmetry_multiplicity
 _atom_site_fract_x
 _atom_site_fract_y
 _atom_site_fract_z
 _atom_site_occupancy
  Ag  Ag0  1  0.67764881  0.00000000  0.67764881  1
  Ag  Ag1  1  0.32235119  1.00000000  0.32235119  1
  Ag  Ag2  1  1.00000000  0.32235119  0.32235119  1
  Ag  Ag3  1  1.00000000  0.67764881  0.67764881  1
  Al  Al0  1  0.00000000  0.00000000  0.00000000  1
  Al  Al1  1  0.66657745  0.33342255  0.00000000  1
  Al  Al2  1  0.33342255  0.66657745  0.00000000  1
  Al  Al3  1  0.33342255  0.33342255  0.66684511  1
  Al  Al4  1  0.66657745  0.66657745  0.33315489  1
