# generated using pymatgen
data_810_Cu3K
_symmetry_space_group_name_H-M   'Pm -3 m'
_cell_length_a   4.16798879
_cell_length_b   4.16798879
_cell_length_c   4.16798879
_cell_angle_alpha   90.00000000
_cell_angle_beta   90.00000000
_cell_angle_gamma   90.00000000
_chemical_formula_structural   Cu3K
_chemical_formula_sum   'Cu3 K1'
_cell_volume   72.40684541
loop_
 _symmetry_equiv_pos_site_id
 _symmetry_equiv_pos_as_xyz
  1  'x, y, z'
loop_
 _atom_type_symbol
  Cu
  K
loop_
 _atom_site_type_symbol
 _atom_site_label
 _atom_site_symmetry_multiplicity
 _atom_site_fract_x
 _atom_site_fract_y
 _atom_site_fract_z
 _atom_site_occupancy
  Cu  Cu0  1  0.00000000  0.50000000  0.50000000  1
  Cu  Cu1  1  0.50000000  0.00000000  0.50000000  1
  Cu  Cu2  1  0.50000000  0.50000000  0.00000000  1
  K  K0  1  0.00000000  0.00000000  0.00000000  1
