# generated using pymatgen
data_813_Cr4As
_symmetry_space_group_name_H-M   'I4/m'
_cell_length_a   4.71127065
_cell_length_b   4.71127065
_cell_length_c   4.71127065
_cell_angle_alpha   95.83461930
_cell_angle_beta   95.83461930
_cell_angle_gamma   142.81471685
_chemical_formula_structural   Cr4As
_chemical_formula_sum   'As1 Cr4'
_cell_volume   59.90397768
loop_
 _symmetry_equiv_pos_site_id
 _symmetry_equiv_pos_as_xyz
  1  'x, y, z'
loop_
 _atom_type_symbol
  As
  Cr
loop_
 _atom_site_type_symbol
 _atom_site_label
 _atom_site_symmetry_multiplicity
 _atom_site_fract_x
 _atom_site_fract_y
 _atom_site_fract_z
 _atom_site_occupancy
  As  As0  1  0.00000000  0.00000000  0.00000000  1
  Cr  Cr0  1  0.80427481  0.39581908  0.20009389  1
  Cr  Cr1  1  0.39581908  0.19572519  0.59154426  1
  Cr  Cr2  1  0.19572519  0.60418092  0.79990611  1
  Cr  Cr3  1  0.60418092  0.80427481  0.40845574  1
