# generated using pymatgen
data_814_Ag8Mn
_symmetry_space_group_name_H-M   'I4/mmm'
_cell_length_a   6.56966556
_cell_length_b   6.56966556
_cell_length_c   8.83299116
_cell_angle_alpha   47.75859409
_cell_angle_beta   47.75859409
_cell_angle_gamma   84.48281182
_chemical_formula_structural   Ag8Mn
_chemical_formula_sum   'Ag8 Mn1'
_cell_volume   158.93544197
loop_
 _symmetry_equiv_pos_site_id
 _symmetry_equiv_pos_as_xyz
  1  'x, y, z'
loop_
 _atom_type_symbol
  Ag
  Mn
loop_
 _atom_site_type_symbol
 _atom_site_label
 _atom_site_symmetry_multiplicity
 _atom_site_fract_x
 _atom_site_fract_y
 _atom_site_fract_z
 _atom_site_occupancy
  Ag  Ag0  1  1.00000000  1.00000000  0.33143112  1
  Ag  Ag1  1  1.00000000  1.00000000  0.66856888  1
  Ag  Ag2  1  0.33143112  0.66856888  1.00000000  1
  Ag  Ag3  1  0.33583874  0.66416126  0.33583874  1
  Ag  Ag4  1  0.33583874  0.66416126  0.66416126  1
  Ag  Ag5  1  0.66856888  0.33143112  0.00000000  1
  Ag  Ag6  1  0.66416126  0.33583874  0.33583874  1
  Ag  Ag7  1  0.66416126  0.33583874  0.66416126  1
  Mn  Mn0  1  0.00000000  0.00000000  0.00000000  1
