# generated using pymatgen
data_819_Au3Nb
_symmetry_space_group_name_H-M   'Pmmm'
_cell_length_a   2.88565137
_cell_length_b   4.02994658
_cell_length_c   6.17318955
_cell_angle_alpha   90.00000000
_cell_angle_beta   90.00000000
_cell_angle_gamma   90.00000000
_chemical_formula_structural   Au3Nb
_chemical_formula_sum   'Au3 Nb1'
_cell_volume   71.78815000
loop_
 _symmetry_equiv_pos_site_id
 _symmetry_equiv_pos_as_xyz
  1  'x, y, z'
loop_
 _atom_type_symbol
  Au
  Nb
loop_
 _atom_site_type_symbol
 _atom_site_label
 _atom_site_symmetry_multiplicity
 _atom_site_fract_x
 _atom_site_fract_y
 _atom_site_fract_z
 _atom_site_occupancy
  Au  Au0  1  1.00000000  0.00000000  0.00939423  1
  Au  Au1  1  0.00000000  0.00000000  0.49060577  1
  Au  Au2  1  0.50000000  0.50000000  0.75000000  1
  Nb  Nb0  1  0.50000000  0.50000000  0.25000000  1
