# generated using pymatgen
data_821_Ag12Br4
_symmetry_space_group_name_H-M   'Pnma'
_cell_length_a   5.73841488
_cell_length_b   5.73751805
_cell_length_c   10.29678445
_cell_angle_alpha   90.00000000
_cell_angle_beta   90.00000000
_cell_angle_gamma   90.00000000
_chemical_formula_structural   Ag12Br4
_chemical_formula_sum   'Ag12 Br4'
_cell_volume   339.01399761
loop_
 _symmetry_equiv_pos_site_id
 _symmetry_equiv_pos_as_xyz
  1  'x, y, z'
loop_
 _atom_type_symbol
  Ag
  Br
loop_
 _atom_site_type_symbol
 _atom_site_label
 _atom_site_symmetry_multiplicity
 _atom_site_fract_x
 _atom_site_fract_y
 _atom_site_fract_z
 _atom_site_occupancy
  Ag  Ag0  1  0.00519291  0.98436441  0.75000000  1
  Ag  Ag1  1  0.50519291  0.51563559  0.25000000  1
  Ag  Ag2  1  0.49480709  0.48436441  0.75000000  1
  Ag  Ag3  1  0.99480709  0.01563559  0.25000000  1
  Ag  Ag4  1  0.67619646  0.32279075  0.00276835  1
  Ag  Ag5  1  0.17619646  0.17720925  0.99723165  1
  Ag  Ag6  1  0.82380354  0.82279075  0.49723165  1
  Ag  Ag7  1  0.32380354  0.67720925  0.50276835  1
  Ag  Ag8  1  0.32380354  0.67720925  0.99723165  1
  Ag  Ag9  1  0.82380354  0.82279075  0.00276835  1
  Ag  Ag10  1  0.17619646  0.17720925  0.50276835  1
  Ag  Ag11  1  0.67619646  0.32279075  0.49723165  1
  Br  Br0  1  0.50503454  0.99035933  0.75000000  1
  Br  Br1  1  0.00503454  0.50964067  0.25000000  1
  Br  Br2  1  0.99496546  0.49035933  0.75000000  1
  Br  Br3  1  0.49496546  0.00964067  0.25000000  1
