# generated using pymatgen
data_822_Ca5Sn7
_symmetry_space_group_name_H-M   'I4mm'
_cell_length_a   8.25798465
_cell_length_b   8.25798465
_cell_length_c   8.25798465
_cell_angle_alpha   102.55189864
_cell_angle_beta   102.55189864
_cell_angle_gamma   124.42675838
_chemical_formula_structural   Ca5Sn7
_chemical_formula_sum   'Ca5 Sn7'
_cell_volume   410.94907554
loop_
 _symmetry_equiv_pos_site_id
 _symmetry_equiv_pos_as_xyz
  1  'x, y, z'
loop_
 _atom_type_symbol
  Ca
  Sn
loop_
 _atom_site_type_symbol
 _atom_site_label
 _atom_site_symmetry_multiplicity
 _atom_site_fract_x
 _atom_site_fract_y
 _atom_site_fract_z
 _atom_site_occupancy
  Ca  Ca0  1  0.90080126  0.90080126  0.00000000  1
  Ca  Ca1  1  0.67611843  0.67611843  0.42062179  1
  Ca  Ca2  1  0.25549664  0.25549664  0.57937821  1
  Ca  Ca3  1  0.25549664  0.67611843  0.00000000  1
  Ca  Ca4  1  0.67611843  0.25549664  0.00000000  1
  Sn  Sn0  1  0.32673799  0.32673799  0.00000000  1
  Sn  Sn1  1  0.01746423  0.51746423  0.50000000  1
  Sn  Sn2  1  0.51746423  0.01746423  0.50000000  1
  Sn  Sn3  1  0.47969774  0.76857553  0.71112221  1
  Sn  Sn4  1  0.05745332  0.76857553  0.28887779  1
  Sn  Sn5  1  0.76857553  0.47969774  0.71112221  1
  Sn  Sn6  1  0.76857553  0.05745332  0.28887779  1
