# generated using pymatgen
data_82_Al2Sn6
_symmetry_space_group_name_H-M   'Cmcm'
_cell_length_a   6.41716416
_cell_length_b   6.41716416
_cell_length_c   5.03886082
_cell_angle_alpha   90.00000000
_cell_angle_beta   90.00000000
_cell_angle_gamma   99.68830277
_chemical_formula_structural   Al2Sn6
_chemical_formula_sum   'Al2 Sn6'
_cell_volume   204.54086680
loop_
 _symmetry_equiv_pos_site_id
 _symmetry_equiv_pos_as_xyz
  1  'x, y, z'
loop_
 _atom_type_symbol
  Al
  Sn
loop_
 _atom_site_type_symbol
 _atom_site_label
 _atom_site_symmetry_multiplicity
 _atom_site_fract_x
 _atom_site_fract_y
 _atom_site_fract_z
 _atom_site_occupancy
  Al  Al0  1  0.67801311  0.32198689  0.75000000  1
  Al  Al1  1  0.32198689  0.67801311  0.25000000  1
  Sn  Sn0  1  0.12543422  0.87456578  0.75000000  1
  Sn  Sn1  1  0.87456578  0.12543422  0.25000000  1
  Sn  Sn2  1  0.61117719  0.81807229  0.75000000  1
  Sn  Sn3  1  0.38882281  0.18192771  0.25000000  1
  Sn  Sn4  1  0.81807229  0.61117719  0.25000000  1
  Sn  Sn5  1  0.18192771  0.38882281  0.75000000  1
