# generated using pymatgen
data_832_Ni6P2
_symmetry_space_group_name_H-M   'I4/mmm'
_cell_length_a   7.54089554
_cell_length_b   7.54089554
_cell_length_c   7.54089554
_cell_angle_alpha   153.47185060
_cell_angle_beta   153.47185060
_cell_angle_gamma   37.86771716
_chemical_formula_structural   Ni6P2
_chemical_formula_sum   'Ni6 P2'
_cell_volume   85.40975726
loop_
 _symmetry_equiv_pos_site_id
 _symmetry_equiv_pos_as_xyz
  1  'x, y, z'
loop_
 _atom_type_symbol
  Ni
  P
loop_
 _atom_site_type_symbol
 _atom_site_label
 _atom_site_symmetry_multiplicity
 _atom_site_fract_x
 _atom_site_fract_y
 _atom_site_fract_z
 _atom_site_occupancy
  Ni  Ni0  1  0.50000000  0.00000000  0.50000000  1
  Ni  Ni1  1  0.00000000  0.50000000  0.50000000  1
  Ni  Ni2  1  0.25000000  0.75000000  0.50000000  1
  Ni  Ni3  1  0.75000000  0.25000000  0.50000000  1
  Ni  Ni4  1  0.87944778  0.87944778  0.00000000  1
  Ni  Ni5  1  0.12055222  0.12055222  0.00000000  1
  P  P0  1  0.63520601  0.63520601  0.00000000  1
  P  P1  1  0.36479399  0.36479399  0.00000000  1
