# generated using pymatgen
data_840_Cu2Ge
_symmetry_space_group_name_H-M   'I4/mmm'
_cell_length_a   6.06859834
_cell_length_b   6.06859834
_cell_length_c   6.06859834
_cell_angle_alpha   154.43836010
_cell_angle_beta   154.43836010
_cell_angle_gamma   36.46276792
_chemical_formula_structural   Cu2Ge
_chemical_formula_sum   'Cu2 Ge1'
_cell_volume   41.55416290
loop_
 _symmetry_equiv_pos_site_id
 _symmetry_equiv_pos_as_xyz
  1  'x, y, z'
loop_
 _atom_type_symbol
  Cu
  Ge
loop_
 _atom_site_type_symbol
 _atom_site_label
 _atom_site_symmetry_multiplicity
 _atom_site_fract_x
 _atom_site_fract_y
 _atom_site_fract_z
 _atom_site_occupancy
  Cu  Cu0  1  0.17393134  0.17393134  0.00000000  1
  Cu  Cu1  1  0.82606866  0.82606866  0.00000000  1
  Ge  Ge0  1  0.50000000  0.50000000  0.00000000  1
