# generated using pymatgen
data_841_Pb2As6
_symmetry_space_group_name_H-M   'Pmmn'
_cell_length_a   5.58785293
_cell_length_b   4.74852980
_cell_length_c   7.90817894
_cell_angle_alpha   90.00000000
_cell_angle_beta   90.00000000
_cell_angle_gamma   90.00000000
_chemical_formula_structural   Pb2As6
_chemical_formula_sum   'As6 Pb2'
_cell_volume   209.83630133
loop_
 _symmetry_equiv_pos_site_id
 _symmetry_equiv_pos_as_xyz
  1  'x, y, z'
loop_
 _atom_type_symbol
  As
  Pb
loop_
 _atom_site_type_symbol
 _atom_site_label
 _atom_site_symmetry_multiplicity
 _atom_site_fract_x
 _atom_site_fract_y
 _atom_site_fract_z
 _atom_site_occupancy
  As  As0  1  0.50000000  0.64375090  0.00000000  1
  As  As1  1  0.00000000  0.35624910  0.50000000  1
  As  As2  1  0.00000000  0.02290317  0.26124164  1
  As  As3  1  0.00000000  0.02290317  0.73875836  1
  As  As4  1  0.50000000  0.97709683  0.76124164  1
  As  As5  1  0.50000000  0.97709683  0.23875836  1
  Pb  Pb0  1  0.00000000  0.43660528  0.00000000  1
  Pb  Pb1  1  0.50000000  0.56339472  0.50000000  1
