# generated using pymatgen
data_842_Na4Pt2
_symmetry_space_group_name_H-M   'I4/mcm'
_cell_length_a   5.78496754
_cell_length_b   5.78496754
_cell_length_c   5.78496754
_cell_angle_alpha   102.60284732
_cell_angle_beta   102.60284732
_cell_angle_gamma   124.30627512
_chemical_formula_structural   Na4Pt2
_chemical_formula_sum   'Na4 Pt2'
_cell_volume   141.40090281
loop_
 _symmetry_equiv_pos_site_id
 _symmetry_equiv_pos_as_xyz
  1  'x, y, z'
loop_
 _atom_type_symbol
  Na
  Pt
loop_
 _atom_site_type_symbol
 _atom_site_label
 _atom_site_symmetry_multiplicity
 _atom_site_fract_x
 _atom_site_fract_y
 _atom_site_fract_z
 _atom_site_occupancy
  Na  Na0  1  0.17917387  0.32082613  0.50000000  1
  Na  Na1  1  0.32082613  0.82082613  0.14165227  1
  Na  Na2  1  0.67917387  0.17917387  0.85834773  1
  Na  Na3  1  0.82082613  0.67917387  0.50000000  1
  Pt  Pt0  1  0.25000000  0.25000000  0.00000000  1
  Pt  Pt1  1  0.75000000  0.75000000  0.00000000  1
