# generated using pymatgen
data_88_Ag2Al2
_symmetry_space_group_name_H-M   'I4_1/amd'
_cell_length_a   5.06147091
_cell_length_b   5.06147091
_cell_length_c   5.06147091
_cell_angle_alpha   133.39023499
_cell_angle_beta   132.61665314
_cell_angle_gamma   68.65065130
_chemical_formula_structural   Ag2Al2
_chemical_formula_sum   'Ag2 Al2'
_cell_volume   68.09247796
loop_
 _symmetry_equiv_pos_site_id
 _symmetry_equiv_pos_as_xyz
  1  'x, y, z'
loop_
 _atom_type_symbol
  Ag
  Al
loop_
 _atom_site_type_symbol
 _atom_site_label
 _atom_site_symmetry_multiplicity
 _atom_site_fract_x
 _atom_site_fract_y
 _atom_site_fract_z
 _atom_site_occupancy
  Ag  Ag0  1  0.37456917  0.62456917  0.25000000  1
  Ag  Ag1  1  0.62543083  0.37543083  0.75000000  1
  Al  Al0  1  0.87485243  0.12485243  0.25000000  1
  Al  Al1  1  0.12514757  0.87514757  0.75000000  1
