# generated using pymatgen
data_89_Ba2Ge2
_symmetry_space_group_name_H-M   'Pmmn'
_cell_length_a   3.85054391
_cell_length_b   5.54217709
_cell_length_c   6.87656043
_cell_angle_alpha   90.00000000
_cell_angle_beta   90.00000000
_cell_angle_gamma   90.00000000
_chemical_formula_structural   Ba2Ge2
_chemical_formula_sum   'Ba2 Ge2'
_cell_volume   146.74852436
loop_
 _symmetry_equiv_pos_site_id
 _symmetry_equiv_pos_as_xyz
  1  'x, y, z'
loop_
 _atom_type_symbol
  Ba
  Ge
loop_
 _atom_site_type_symbol
 _atom_site_label
 _atom_site_symmetry_multiplicity
 _atom_site_fract_x
 _atom_site_fract_y
 _atom_site_fract_z
 _atom_site_occupancy
  Ba  Ba0  1  0.00000000  0.00000000  0.09834824  1
  Ba  Ba1  1  0.50000000  0.50000000  0.65165176  1
  Ge  Ge0  1  0.00000000  0.00000000  0.57402208  1
  Ge  Ge1  1  0.50000000  0.50000000  0.17597792  1
