# generated using pymatgen
data_90_IrSn
_symmetry_space_group_name_H-M   'P4/mmm'
_cell_length_a   3.08991380
_cell_length_b   4.36979700
_cell_length_c   3.71558100
_cell_angle_alpha   90.00000000
_cell_angle_beta   90.00000000
_cell_angle_gamma   45.00000000
_chemical_formula_structural   IrSn
_chemical_formula_sum   'Ir1 Sn1'
_cell_volume   35.47475147
loop_
 _symmetry_equiv_pos_site_id
 _symmetry_equiv_pos_as_xyz
  1  'x, y, z'
loop_
 _atom_type_symbol
  Ir
  Sn
loop_
 _atom_site_type_symbol
 _atom_site_label
 _atom_site_symmetry_multiplicity
 _atom_site_fract_x
 _atom_site_fract_y
 _atom_site_fract_z
 _atom_site_occupancy
  Ir  Ir0  1  0.00000000  0.00000000  0.00000000  1
  Sn  Sn0  1  0.00000000  0.50000030  0.49999981  1
