# generated using pymatgen
data_920_Cr24P5
_symmetry_space_group_name_H-M   'I-43m'
_cell_length_a   7.64537619
_cell_length_b   7.64537619
_cell_length_c   7.64537619
_cell_angle_alpha   109.47122063
_cell_angle_beta   109.47122063
_cell_angle_gamma   109.47122063
_chemical_formula_structural   Cr24P5
_chemical_formula_sum   'Cr24 P5'
_cell_volume   344.01286801
loop_
 _symmetry_equiv_pos_site_id
 _symmetry_equiv_pos_as_xyz
  1  'x, y, z'
loop_
 _atom_type_symbol
  Cr
  P
loop_
 _atom_site_type_symbol
 _atom_site_label
 _atom_site_symmetry_multiplicity
 _atom_site_fract_x
 _atom_site_fract_y
 _atom_site_fract_z
 _atom_site_occupancy
  Cr  Cr0  1  0.19646406  0.37686740  0.00000000  1
  Cr  Cr1  1  0.37686740  0.19646406  0.00000000  1
  Cr  Cr2  1  0.80353594  0.80353594  0.18040334  1
  Cr  Cr3  1  0.62313260  0.62313260  0.81959666  1
  Cr  Cr4  1  0.80353594  0.18040334  0.80353594  1
  Cr  Cr5  1  0.62313260  0.81959666  0.62313260  1
  Cr  Cr6  1  0.37686740  0.00000000  0.19646406  1
  Cr  Cr7  1  0.19646406  0.00000000  0.37686740  1
  Cr  Cr8  1  1.00000000  0.37686740  0.19646406  1
  Cr  Cr9  1  1.00000000  0.19646406  0.37686740  1
  Cr  Cr10  1  0.81959666  0.62313260  0.62313260  1
  Cr  Cr11  1  0.18040334  0.80353594  0.80353594  1
  Cr  Cr12  1  0.67814276  0.39710168  0.00000000  1
  Cr  Cr13  1  0.39710168  0.67814276  0.00000000  1
  Cr  Cr14  1  0.32185724  0.32185724  0.71895892  1
  Cr  Cr15  1  0.60289832  0.60289832  0.28104108  1
  Cr  Cr16  1  0.32185724  0.71895892  0.32185724  1
  Cr  Cr17  1  0.60289832  0.28104108  0.60289832  1
  Cr  Cr18  1  0.39710168  0.00000000  0.67814276  1
  Cr  Cr19  1  0.67814276  0.00000000  0.39710168  1
  Cr  Cr20  1  1.00000000  0.39710168  0.67814276  1
  Cr  Cr21  1  1.00000000  0.67814276  0.39710168  1
  Cr  Cr22  1  0.28104108  0.60289832  0.60289832  1
  Cr  Cr23  1  0.71895892  0.32185724  0.32185724  1
  P  P0  1  0.00000000  0.59600032  0.00000000  1
  P  P1  1  0.59600032  0.00000000  0.00000000  1
  P  P2  1  0.00000000  0.00000000  0.59600032  1
  P  P3  1  0.40399968  0.40399968  0.40399968  1
  P  P4  1  0.00000000  0.00000000  0.00000000  1
