# generated using pymatgen
data_924_Fe16Na4
_symmetry_space_group_name_H-M   'I-43m'
_cell_length_a   6.98397359
_cell_length_b   6.98397359
_cell_length_c   6.98397359
_cell_angle_alpha   109.47122063
_cell_angle_beta   109.47122063
_cell_angle_gamma   109.47122063
_chemical_formula_structural   Fe16Na4
_chemical_formula_sum   'Fe16 Na4'
_cell_volume   262.23211261
loop_
 _symmetry_equiv_pos_site_id
 _symmetry_equiv_pos_as_xyz
  1  'x, y, z'
loop_
 _atom_type_symbol
  Fe
  Na
loop_
 _atom_site_type_symbol
 _atom_site_label
 _atom_site_symmetry_multiplicity
 _atom_site_fract_x
 _atom_site_fract_y
 _atom_site_fract_z
 _atom_site_occupancy
  Fe  Fe0  1  0.79975496  0.79975496  0.79975496  1
  Fe  Fe1  1  0.20024504  0.00000000  0.00000000  1
  Fe  Fe2  1  1.00000000  0.20024504  0.00000000  1
  Fe  Fe3  1  1.00000000  0.00000000  0.20024504  1
  Fe  Fe4  1  0.64448094  0.64448094  0.00000000  1
  Fe  Fe5  1  0.35551906  0.35551906  0.00000000  1
  Fe  Fe6  1  0.64448094  0.00000000  0.64448094  1
  Fe  Fe7  1  0.35551906  0.00000000  0.35551906  1
  Fe  Fe8  1  1.00000000  0.64448094  0.64448094  1
  Fe  Fe9  1  1.00000000  0.35551906  0.35551906  1
  Fe  Fe10  1  0.24988287  0.74988287  0.50000000  1
  Fe  Fe11  1  0.75011713  0.25011713  0.50000000  1
  Fe  Fe12  1  0.74988287  0.50000000  0.24988287  1
  Fe  Fe13  1  0.25011713  0.50000000  0.75011713  1
  Fe  Fe14  1  0.50000000  0.24988287  0.74988287  1
  Fe  Fe15  1  0.50000000  0.75011713  0.25011713  1
  Na  Na0  1  0.43921763  0.43921763  0.43921763  1
  Na  Na1  1  0.56078237  0.00000000  0.00000000  1
  Na  Na2  1  1.00000000  0.56078237  0.00000000  1
  Na  Na3  1  1.00000000  0.00000000  0.56078237  1
