# generated using pymatgen
data_92_InI
_symmetry_space_group_name_H-M   'R -3 m'
_cell_length_a   5.42022884
_cell_length_b   5.42022884
_cell_length_c   5.42022866
_cell_angle_alpha   44.38588018
_cell_angle_beta   44.38588018
_cell_angle_gamma   44.38588772
_chemical_formula_structural   InI
_chemical_formula_sum   'I1 In1'
_cell_volume   70.82359266
loop_
 _symmetry_equiv_pos_site_id
 _symmetry_equiv_pos_as_xyz
  1  'x, y, z'
loop_
 _atom_type_symbol
  I
  In
loop_
 _atom_site_type_symbol
 _atom_site_label
 _atom_site_symmetry_multiplicity
 _atom_site_fract_x
 _atom_site_fract_y
 _atom_site_fract_z
 _atom_site_occupancy
  I  I0  1  0.00000000  0.00000000  0.00000000  1
  In  In0  1  0.50000000  0.50000000  0.50000000  1
