# generated using pymatgen
data_930_Ba4Pd2
_symmetry_space_group_name_H-M   'Cmcm'
_cell_length_a   9.79608476
_cell_length_b   9.79608476
_cell_length_c   6.16333593
_cell_angle_alpha   90.00000000
_cell_angle_beta   90.00000000
_cell_angle_gamma   155.57194966
_chemical_formula_structural   Ba4Pd2
_chemical_formula_sum   'Ba4 Pd2'
_cell_volume   244.59589776
loop_
 _symmetry_equiv_pos_site_id
 _symmetry_equiv_pos_as_xyz
  1  'x, y, z'
loop_
 _atom_type_symbol
  Ba
  Pd
loop_
 _atom_site_type_symbol
 _atom_site_label
 _atom_site_symmetry_multiplicity
 _atom_site_fract_x
 _atom_site_fract_y
 _atom_site_fract_z
 _atom_site_occupancy
  Ba  Ba0  1  0.56429284  0.43570716  0.25000000  1
  Ba  Ba1  1  0.30272395  0.69727605  0.25000000  1
  Ba  Ba2  1  0.43570716  0.56429284  0.75000000  1
  Ba  Ba3  1  0.69727605  0.30272395  0.75000000  1
  Pd  Pd0  1  0.92740253  0.07259747  0.25000000  1
  Pd  Pd1  1  0.07259747  0.92740253  0.75000000  1
