# generated using pymatgen
data_932_BaBr2
_symmetry_space_group_name_H-M   'I4/mmm'
_cell_length_a   6.17494040
_cell_length_b   6.17494040
_cell_length_c   6.17494040
_cell_angle_alpha   139.00975587
_cell_angle_beta   139.00975587
_cell_angle_gamma   59.35997651
_chemical_formula_structural   BaBr2
_chemical_formula_sum   'Ba1 Br2'
_cell_volume   100.30744072
loop_
 _symmetry_equiv_pos_site_id
 _symmetry_equiv_pos_as_xyz
  1  'x, y, z'
loop_
 _atom_type_symbol
  Ba
  Br
loop_
 _atom_site_type_symbol
 _atom_site_label
 _atom_site_symmetry_multiplicity
 _atom_site_fract_x
 _atom_site_fract_y
 _atom_site_fract_z
 _atom_site_occupancy
  Ba  Ba0  1  0.00000000  0.00000000  0.00000000  1
  Br  Br0  1  0.65565990  0.65565990  0.00000000  1
  Br  Br1  1  0.34434010  0.34434010  0.00000000  1
