# generated using pymatgen
data_933_BiP
_symmetry_space_group_name_H-M   'P-6m2'
_cell_length_a   3.88012323
_cell_length_b   3.87995727
_cell_length_c   3.79017406
_cell_angle_alpha   90.00000000
_cell_angle_beta   90.00000000
_cell_angle_gamma   120.00141490
_chemical_formula_structural   BiP
_chemical_formula_sum   'Bi1 P1'
_cell_volume   49.41468777
loop_
 _symmetry_equiv_pos_site_id
 _symmetry_equiv_pos_as_xyz
  1  'x, y, z'
loop_
 _atom_type_symbol
  Bi
  P
loop_
 _atom_site_type_symbol
 _atom_site_label
 _atom_site_symmetry_multiplicity
 _atom_site_fract_x
 _atom_site_fract_y
 _atom_site_fract_z
 _atom_site_occupancy
  Bi  Bi0  1  0.66667190  0.33334280  0.75000000  1
  P  P0  1  0.33332810  0.66665720  0.25000000  1
