# generated using pymatgen
data_935_BaPd5
_symmetry_space_group_name_H-M   'Amm2'
_cell_length_a   7.79626009
_cell_length_b   7.79626009
_cell_length_c   4.06419460
_cell_angle_alpha   90.00000000
_cell_angle_beta   90.00000000
_cell_angle_gamma   150.71002547
_chemical_formula_structural   BaPd5
_chemical_formula_sum   'Ba1 Pd5'
_cell_volume   120.85373625
loop_
 _symmetry_equiv_pos_site_id
 _symmetry_equiv_pos_as_xyz
  1  'x, y, z'
loop_
 _atom_type_symbol
  Ba
  Pd
loop_
 _atom_site_type_symbol
 _atom_site_label
 _atom_site_symmetry_multiplicity
 _atom_site_fract_x
 _atom_site_fract_y
 _atom_site_fract_z
 _atom_site_occupancy
  Ba  Ba0  1  0.00276183  0.99723817  0.00000000  1
  Pd  Pd0  1  0.20711040  0.79288960  0.50000000  1
  Pd  Pd1  1  0.33449823  0.66550177  0.00000000  1
  Pd  Pd2  1  0.58123829  0.41876171  0.50000000  1
  Pd  Pd3  1  0.70414964  0.29585036  0.00000000  1
  Pd  Pd4  1  0.83690828  0.16309172  0.50000000  1
