# generated using pymatgen
data_936_FeAs3
_symmetry_space_group_name_H-M   'Imm2'
_cell_length_a   6.29283746
_cell_length_b   6.29283746
_cell_length_c   6.29283746
_cell_angle_alpha   153.39519075
_cell_angle_beta   135.69086424
_cell_angle_gamma   52.43232946
_chemical_formula_structural   FeAs3
_chemical_formula_sum   'As3 Fe1'
_cell_volume   77.59247523
loop_
 _symmetry_equiv_pos_site_id
 _symmetry_equiv_pos_as_xyz
  1  'x, y, z'
loop_
 _atom_type_symbol
  As
  Fe
loop_
 _atom_site_type_symbol
 _atom_site_label
 _atom_site_symmetry_multiplicity
 _atom_site_fract_x
 _atom_site_fract_y
 _atom_site_fract_z
 _atom_site_occupancy
  As  As0  1  0.65736885  0.65215911  0.00520974  1
  As  As1  1  0.35305062  0.34784089  0.00520974  1
  As  As2  1  0.11087744  0.50000000  0.61087744  1
  Fe  Fe0  1  0.71203308  0.00000000  0.71203308  1
