# generated using pymatgen
data_938_Ca4In
_symmetry_space_group_name_H-M   'I4/m'
_cell_length_a   6.72212007
_cell_length_b   6.72212007
_cell_length_c   6.72212007
_cell_angle_alpha   99.35889428
_cell_angle_beta   99.35889428
_cell_angle_gamma   132.43580692
_chemical_formula_structural   Ca4In
_chemical_formula_sum   'Ca4 In1'
_cell_volume   205.14305671
loop_
 _symmetry_equiv_pos_site_id
 _symmetry_equiv_pos_as_xyz
  1  'x, y, z'
loop_
 _atom_type_symbol
  Ca
  In
loop_
 _atom_site_type_symbol
 _atom_site_label
 _atom_site_symmetry_multiplicity
 _atom_site_fract_x
 _atom_site_fract_y
 _atom_site_fract_z
 _atom_site_occupancy
  Ca  Ca0  1  0.79999491  0.39999740  0.19999231  1
  Ca  Ca1  1  0.39999740  0.20000509  0.60000249  1
  Ca  Ca2  1  0.20000509  0.60000260  0.80000769  1
  Ca  Ca3  1  0.60000260  0.79999491  0.39999751  1
  In  In0  1  0.00000000  0.00000000  0.00000000  1
