# generated using pymatgen
data_939_In2Sn2
_symmetry_space_group_name_H-M   'C2/m'
_cell_length_a   6.50217323
_cell_length_b   6.53202531
_cell_length_c   3.37640954
_cell_angle_alpha   75.02186370
_cell_angle_beta   74.95147560
_cell_angle_gamma   52.55425184
_chemical_formula_structural   In2Sn2
_chemical_formula_sum   'In2 Sn2'
_cell_volume   108.99793638
loop_
 _symmetry_equiv_pos_site_id
 _symmetry_equiv_pos_as_xyz
  1  'x, y, z'
loop_
 _atom_type_symbol
  In
  Sn
loop_
 _atom_site_type_symbol
 _atom_site_label
 _atom_site_symmetry_multiplicity
 _atom_site_fract_x
 _atom_site_fract_y
 _atom_site_fract_z
 _atom_site_occupancy
  In  In0  1  0.00092297  0.00042127  0.99932788  1
  In  In1  1  0.91574369  0.58291206  0.75067212  1
  Sn  Sn0  1  0.49791274  0.49862522  0.50173102  1
  Sn  Sn1  1  0.41875392  0.08470811  0.24826898  1
