# generated using pymatgen
data_941_FeIn
_symmetry_space_group_name_H-M   'P-6m2'
_cell_length_a   3.00206577
_cell_length_b   3.00204318
_cell_length_c   4.38407464
_cell_angle_alpha   90.00002098
_cell_angle_beta   89.99997254
_cell_angle_gamma   120.00034657
_chemical_formula_structural   FeIn
_chemical_formula_sum   'Fe1 In1'
_cell_volume   34.21717825
loop_
 _symmetry_equiv_pos_site_id
 _symmetry_equiv_pos_as_xyz
  1  'x, y, z'
loop_
 _atom_type_symbol
  Fe
  In
loop_
 _atom_site_type_symbol
 _atom_site_label
 _atom_site_symmetry_multiplicity
 _atom_site_fract_x
 _atom_site_fract_y
 _atom_site_fract_z
 _atom_site_occupancy
  Fe  Fe0  1  0.66666785  0.33333451  0.74999989  1
  In  In0  1  0.33333266  0.66666478  0.24999942  1
