# generated using pymatgen
data_942_Cu2Ga2
_symmetry_space_group_name_H-M   'Cmcm'
_cell_length_a   4.97861948
_cell_length_b   4.97861948
_cell_length_c   4.06575558
_cell_angle_alpha   90.00000000
_cell_angle_beta   90.00000000
_cell_angle_gamma   145.32399065
_chemical_formula_structural   Cu2Ga2
_chemical_formula_sum   'Cu2 Ga2'
_cell_volume   57.33528302
loop_
 _symmetry_equiv_pos_site_id
 _symmetry_equiv_pos_as_xyz
  1  'x, y, z'
loop_
 _atom_type_symbol
  Cu
  Ga
loop_
 _atom_site_type_symbol
 _atom_site_label
 _atom_site_symmetry_multiplicity
 _atom_site_fract_x
 _atom_site_fract_y
 _atom_site_fract_z
 _atom_site_occupancy
  Cu  Cu0  1  0.57806520  0.42193480  0.75000000  1
  Cu  Cu1  1  0.42193480  0.57806520  0.25000000  1
  Ga  Ga0  1  0.84440371  0.15559629  0.75000000  1
  Ga  Ga1  1  0.15559629  0.84440371  0.25000000  1
