# generated using pymatgen
data_943_USb
_symmetry_space_group_name_H-M   'P-6m2'
_cell_length_a   3.25693370
_cell_length_b   3.25692862
_cell_length_c   5.26685997
_cell_angle_alpha   90.00000000
_cell_angle_beta   90.00000000
_cell_angle_gamma   120.00005157
_chemical_formula_structural   USb
_chemical_formula_sum   'Sb1 U1'
_cell_volume   48.38372897
loop_
 _symmetry_equiv_pos_site_id
 _symmetry_equiv_pos_as_xyz
  1  'x, y, z'
loop_
 _atom_type_symbol
  Sb
  U
loop_
 _atom_site_type_symbol
 _atom_site_label
 _atom_site_symmetry_multiplicity
 _atom_site_fract_x
 _atom_site_fract_y
 _atom_site_fract_z
 _atom_site_occupancy
  Sb  Sb0  1  0.66666724  0.33333331  0.74999928  1
  U  U0  1  0.33333317  0.66666634  0.24999976  1
