# generated using pymatgen
data_946_Al10Ga6
_symmetry_space_group_name_H-M   'Cmcm'
_cell_length_a   8.10122637
_cell_length_b   8.10925992
_cell_length_c   5.22347875
_cell_angle_alpha   89.93101145
_cell_angle_beta   90.02470392
_cell_angle_gamma   122.23319663
_chemical_formula_structural   Al10Ga6
_chemical_formula_sum   'Al10 Ga6'
_cell_volume   290.27019641
loop_
 _symmetry_equiv_pos_site_id
 _symmetry_equiv_pos_as_xyz
  1  'x, y, z'
loop_
 _atom_type_symbol
  Al
  Ga
loop_
 _atom_site_type_symbol
 _atom_site_label
 _atom_site_symmetry_multiplicity
 _atom_site_fract_x
 _atom_site_fract_y
 _atom_site_fract_z
 _atom_site_occupancy
  Al  Al0  1  0.66426563  0.33542721  0.99993446  1
  Al  Al1  1  0.33572975  0.66450554  0.50005073  1
  Al  Al2  1  0.33566028  0.66452326  0.99969192  1
  Al  Al3  1  0.66447399  0.33580116  0.49973300  1
  Al  Al4  1  0.79082172  0.79088916  0.74983033  1
  Al  Al5  1  0.20908160  0.20916581  0.25024242  1
  Al  Al6  1  0.00749946  0.21507367  0.74990167  1
  Al  Al7  1  0.21507992  0.00717705  0.74981603  1
  Al  Al8  1  0.78493728  0.99278581  0.25017510  1
  Al  Al9  1  0.99248045  0.78502931  0.25038857  1
  Ga  Ga0  1  0.41012163  0.41026117  0.74998662  1
  Ga  Ga1  1  0.58981310  0.58966733  0.24989281  1
  Ga  Ga2  1  0.00464792  0.60198192  0.75000663  1
  Ga  Ga3  1  0.60246938  0.00450729  0.75009839  1
  Ga  Ga4  1  0.39737893  0.99519845  0.24979977  1
  Ga  Ga5  1  0.99543896  0.39791412  0.25011642  1
