# generated using pymatgen
data_948_Al4Ce
_symmetry_space_group_name_H-M   'I4/mmm'
_cell_length_a   4.32105500
_cell_length_b   4.32105500
_cell_length_c   6.44815191
_cell_angle_alpha   109.57627352
_cell_angle_beta   109.57627352
_cell_angle_gamma   90.00000000
_chemical_formula_structural   Al4Ce
_chemical_formula_sum   'Al4 Ce1'
_cell_volume   106.02217234
loop_
 _symmetry_equiv_pos_site_id
 _symmetry_equiv_pos_as_xyz
  1  'x, y, z'
loop_
 _atom_type_symbol
  Al
  Ce
loop_
 _atom_site_type_symbol
 _atom_site_label
 _atom_site_symmetry_multiplicity
 _atom_site_fract_x
 _atom_site_fract_y
 _atom_site_fract_z
 _atom_site_occupancy
  Al  Al0  1  0.61265959  0.61265959  0.22531809  1
  Al  Al1  1  0.75000036  0.24999978  0.49999968  1
  Al  Al2  1  0.24999978  0.75000036  0.49999968  1
  Al  Al3  1  0.38734143  0.38734143  0.77468303  1
  Ce  Ce0  1  0.00000000  0.00000000  0.00000000  1
