# generated using pymatgen
data_952_Pb2As4
_symmetry_space_group_name_H-M   'Pnnm'
_cell_length_a   4.36510854
_cell_length_b   5.58820683
_cell_length_c   7.21752726
_cell_angle_alpha   90.00000000
_cell_angle_beta   90.00000000
_cell_angle_gamma   90.00000000
_chemical_formula_structural   Pb2As4
_chemical_formula_sum   'As4 Pb2'
_cell_volume   176.05807609
loop_
 _symmetry_equiv_pos_site_id
 _symmetry_equiv_pos_as_xyz
  1  'x, y, z'
loop_
 _atom_type_symbol
  As
  Pb
loop_
 _atom_site_type_symbol
 _atom_site_label
 _atom_site_symmetry_multiplicity
 _atom_site_fract_x
 _atom_site_fract_y
 _atom_site_fract_z
 _atom_site_occupancy
  As  As0  1  0.00000000  0.16246006  0.60215429  1
  As  As1  1  0.00000000  0.83753994  0.39784571  1
  As  As2  1  0.50000000  0.66246006  0.89784571  1
  As  As3  1  0.50000000  0.33753994  0.10215429  1
  Pb  Pb0  1  0.00000000  0.00000000  0.00000000  1
  Pb  Pb1  1  0.50000000  0.50000000  0.50000000  1
