# generated using pymatgen
data_969_CsW
_symmetry_space_group_name_H-M   'P-6m2'
_cell_length_a   3.10506203
_cell_length_b   3.10461654
_cell_length_c   6.45823361
_cell_angle_alpha   90.00000000
_cell_angle_beta   90.00000000
_cell_angle_gamma   120.00475739
_chemical_formula_structural   CsW
_chemical_formula_sum   'Cs1 W1'
_cell_volume   53.91403147
loop_
 _symmetry_equiv_pos_site_id
 _symmetry_equiv_pos_as_xyz
  1  'x, y, z'
loop_
 _atom_type_symbol
  Cs
  W
loop_
 _atom_site_type_symbol
 _atom_site_label
 _atom_site_symmetry_multiplicity
 _atom_site_fract_x
 _atom_site_fract_y
 _atom_site_fract_z
 _atom_site_occupancy
  Cs  Cs0  1  0.66666781  0.33333285  0.74999953  1
  W  W0  1  0.33333209  0.66666417  0.25000091  1
