# generated using pymatgen
data_971_Cr6Ta2
_symmetry_space_group_name_H-M   'Pmmn'
_cell_length_a   4.90623522
_cell_length_b   4.42491964
_cell_length_c   5.05331254
_cell_angle_alpha   90.00000000
_cell_angle_beta   90.00000000
_cell_angle_gamma   90.00000000
_chemical_formula_structural   Cr6Ta2
_chemical_formula_sum   'Cr6 Ta2'
_cell_volume   109.70588198
loop_
 _symmetry_equiv_pos_site_id
 _symmetry_equiv_pos_as_xyz
  1  'x, y, z'
loop_
 _atom_type_symbol
  Cr
  Ta
loop_
 _atom_site_type_symbol
 _atom_site_label
 _atom_site_symmetry_multiplicity
 _atom_site_fract_x
 _atom_site_fract_y
 _atom_site_fract_z
 _atom_site_occupancy
  Cr  Cr0  1  0.00000000  0.50000000  0.32009233  1
  Cr  Cr1  1  0.27595163  0.00000000  0.13360588  1
  Cr  Cr2  1  0.22404837  0.50000000  0.86639412  1
  Cr  Cr3  1  0.50000000  0.00000000  0.67990767  1
  Cr  Cr4  1  0.72404837  0.00000000  0.13360588  1
  Cr  Cr5  1  0.77595163  0.50000000  0.86639412  1
  Ta  Ta0  1  0.00000000  0.00000000  0.61741750  1
  Ta  Ta1  1  0.50000000  0.50000000  0.38258250  1
