# generated using pymatgen
data_972_NiP4
_symmetry_space_group_name_H-M   'I4/mmm'
_cell_length_a   4.73789420
_cell_length_b   4.73789420
_cell_length_c   4.73789420
_cell_angle_alpha   122.15536819
_cell_angle_beta   122.15536819
_cell_angle_gamma   86.30564971
_chemical_formula_structural   NiP4
_chemical_formula_sum   'Ni1 P4'
_cell_volume   72.58968327
loop_
 _symmetry_equiv_pos_site_id
 _symmetry_equiv_pos_as_xyz
  1  'x, y, z'
loop_
 _atom_type_symbol
  Ni
  P
loop_
 _atom_site_type_symbol
 _atom_site_label
 _atom_site_symmetry_multiplicity
 _atom_site_fract_x
 _atom_site_fract_y
 _atom_site_fract_z
 _atom_site_occupancy
  Ni  Ni0  1  0.00000000  0.00000000  0.00000000  1
  P  P0  1  0.25000000  0.75000000  0.50000000  1
  P  P1  1  0.75000000  0.25000000  0.50000000  1
  P  P2  1  0.67493258  0.67493258  0.00000000  1
  P  P3  1  0.32506742  0.32506742  0.00000000  1
