# generated using pymatgen
data_979_AuNb3
_symmetry_space_group_name_H-M   'Imm2'
_cell_length_a   5.70815925
_cell_length_b   5.70815925
_cell_length_c   5.70815925
_cell_angle_alpha   152.12763238
_cell_angle_beta   123.69109875
_cell_angle_gamma   63.97862844
_chemical_formula_structural   AuNb3
_chemical_formula_sum   'Au1 Nb3'
_cell_volume   71.70571022
loop_
 _symmetry_equiv_pos_site_id
 _symmetry_equiv_pos_as_xyz
  1  'x, y, z'
loop_
 _atom_type_symbol
  Au
  Nb
loop_
 _atom_site_type_symbol
 _atom_site_label
 _atom_site_symmetry_multiplicity
 _atom_site_fract_x
 _atom_site_fract_y
 _atom_site_fract_z
 _atom_site_occupancy
  Au  Au0  1  0.01657343  0.00000000  0.01657343  1
  Nb  Nb0  1  0.06412149  0.74572075  0.31840074  1
  Nb  Nb1  1  0.51329177  0.50000000  0.01329177  1
  Nb  Nb2  1  0.57267999  0.25427925  0.31840074  1
