# generated using pymatgen
data_97_Ag3Al
_symmetry_space_group_name_H-M   'P4/mmm'
_cell_length_a   3.02396763
_cell_length_b   3.02396763
_cell_length_c   7.52235972
_cell_angle_alpha   90.00000000
_cell_angle_beta   90.00000000
_cell_angle_gamma   90.00000000
_chemical_formula_structural   Ag3Al
_chemical_formula_sum   'Ag3 Al1'
_cell_volume   68.78731749
loop_
 _symmetry_equiv_pos_site_id
 _symmetry_equiv_pos_as_xyz
  1  'x, y, z'
loop_
 _atom_type_symbol
  Ag
  Al
loop_
 _atom_site_type_symbol
 _atom_site_label
 _atom_site_symmetry_multiplicity
 _atom_site_fract_x
 _atom_site_fract_y
 _atom_site_fract_z
 _atom_site_occupancy
  Ag  Ag0  1  0.50000000  0.50000000  0.76767271  1
  Ag  Ag1  1  0.00000000  0.00000000  0.50000000  1
  Ag  Ag2  1  0.50000000  0.50000000  0.23232729  1
  Al  Al0  1  0.00000000  0.00000000  0.00000000  1
