# generated using pymatgen
data_987_Cr2Na2
_symmetry_space_group_name_H-M   'Pmmn'
_cell_length_a   3.08291752
_cell_length_b   4.71595798
_cell_length_c   6.63235955
_cell_angle_alpha   90.00000000
_cell_angle_beta   90.00000000
_cell_angle_gamma   90.00000000
_chemical_formula_structural   Cr2Na2
_chemical_formula_sum   'Cr2 Na2'
_cell_volume   96.42727514
loop_
 _symmetry_equiv_pos_site_id
 _symmetry_equiv_pos_as_xyz
  1  'x, y, z'
loop_
 _atom_type_symbol
  Cr
  Na
loop_
 _atom_site_type_symbol
 _atom_site_label
 _atom_site_symmetry_multiplicity
 _atom_site_fract_x
 _atom_site_fract_y
 _atom_site_fract_z
 _atom_site_occupancy
  Cr  Cr0  1  0.00000000  0.00000000  0.96919981  1
  Cr  Cr1  1  0.50000000  0.50000000  0.78080019  1
  Na  Na0  1  0.00000000  0.00000000  0.51080020  1
  Na  Na1  1  0.50000000  0.50000000  0.23919980  1
