# generated using pymatgen
data_990_Ga16Pt4
_symmetry_space_group_name_H-M   'I-43m'
_cell_length_a   7.87474042
_cell_length_b   7.87474042
_cell_length_c   7.87474042
_cell_angle_alpha   109.47122063
_cell_angle_beta   109.47122063
_cell_angle_gamma   109.47122063
_chemical_formula_structural   Ga16Pt4
_chemical_formula_sum   'Ga16 Pt4'
_cell_volume   375.91257090
loop_
 _symmetry_equiv_pos_site_id
 _symmetry_equiv_pos_as_xyz
  1  'x, y, z'
loop_
 _atom_type_symbol
  Ga
  Pt
loop_
 _atom_site_type_symbol
 _atom_site_label
 _atom_site_symmetry_multiplicity
 _atom_site_fract_x
 _atom_site_fract_y
 _atom_site_fract_z
 _atom_site_occupancy
  Ga  Ga0  1  0.64487964  0.00000000  0.00000000  1
  Ga  Ga1  1  1.00000000  0.64487964  0.00000000  1
  Ga  Ga2  1  1.00000000  0.00000000  0.64487964  1
  Ga  Ga3  1  0.35512036  0.35512036  0.35512036  1
  Ga  Ga4  1  1.00000000  0.32170888  0.32170888  1
  Ga  Ga5  1  0.00000000  0.67829112  0.67829112  1
  Ga  Ga6  1  0.67829112  0.00000000  0.67829112  1
  Ga  Ga7  1  0.32170888  0.00000000  0.32170888  1
  Ga  Ga8  1  0.67829112  0.67829112  0.00000000  1
  Ga  Ga9  1  0.32170888  0.32170888  0.00000000  1
  Ga  Ga10  1  0.50000000  0.25005128  0.75005128  1
  Ga  Ga11  1  0.50000000  0.74994872  0.24994872  1
  Ga  Ga12  1  0.24994872  0.50000000  0.74994872  1
  Ga  Ga13  1  0.75005128  0.50000000  0.25005128  1
  Ga  Ga14  1  0.74994872  0.24994872  0.50000000  1
  Ga  Ga15  1  0.25005128  0.75005128  0.50000000  1
  Pt  Pt0  1  0.33059332  0.00000000  0.00000000  1
  Pt  Pt1  1  1.00000000  0.33059332  0.00000000  1
  Pt  Pt2  1  1.00000000  0.00000000  0.33059332  1
  Pt  Pt3  1  0.66940668  0.66940668  0.66940668  1
