# generated using pymatgen
data_991_Ni4Rh2
_symmetry_space_group_name_H-M   'Pmmm'
_cell_length_a   2.60055038
_cell_length_b   7.75700375
_cell_length_c   3.62453225
_cell_angle_alpha   90.00000000
_cell_angle_beta   90.00000000
_cell_angle_gamma   90.00000000
_chemical_formula_structural   Ni4Rh2
_chemical_formula_sum   'Ni4 Rh2'
_cell_volume   73.11580089
loop_
 _symmetry_equiv_pos_site_id
 _symmetry_equiv_pos_as_xyz
  1  'x, y, z'
loop_
 _atom_type_symbol
  Ni
  Rh
loop_
 _atom_site_type_symbol
 _atom_site_label
 _atom_site_symmetry_multiplicity
 _atom_site_fract_x
 _atom_site_fract_y
 _atom_site_fract_z
 _atom_site_occupancy
  Ni  Ni0  1  1.00000000  0.00863260  0.00000000  1
  Ni  Ni1  1  0.50000000  0.16666667  0.50000000  1
  Ni  Ni2  1  0.00000000  0.32470073  0.00000000  1
  Ni  Ni3  1  1.00000000  0.66666667  0.00000000  1
  Rh  Rh0  1  0.50000000  0.49325831  0.50000000  1
  Rh  Rh1  1  0.50000000  0.84007503  0.50000000  1
