# generated using pymatgen
data_993_Ba4Ni6
_symmetry_space_group_name_H-M   'R -3 c'
_cell_length_a   7.11134205
_cell_length_b   7.11134290
_cell_length_c   7.62270965
_cell_angle_alpha   117.80459894
_cell_angle_beta   62.19540228
_cell_angle_gamma   119.99999602
_chemical_formula_structural   Ba4Ni6
_chemical_formula_sum   'Ba4 Ni6'
_cell_volume   281.27986848
loop_
 _symmetry_equiv_pos_site_id
 _symmetry_equiv_pos_as_xyz
  1  'x, y, z'
loop_
 _atom_type_symbol
  Ba
  Ni
loop_
 _atom_site_type_symbol
 _atom_site_label
 _atom_site_symmetry_multiplicity
 _atom_site_fract_x
 _atom_site_fract_y
 _atom_site_fract_z
 _atom_site_occupancy
  Ba  Ba0  1  0.60213094  0.39786906  0.19360718  1
  Ba  Ba1  1  0.89786906  0.10213094  0.30639282  1
  Ba  Ba2  1  0.10213094  0.89786906  0.69360718  1
  Ba  Ba3  1  0.39786906  0.60213094  0.80639282  1
  Ni  Ni0  1  0.25000000  0.93723308  0.25000000  1
  Ni  Ni1  1  0.06276692  0.56276692  0.25000000  1
  Ni  Ni2  1  0.43723308  0.75000000  0.25000000  1
  Ni  Ni3  1  0.56276692  0.25000000  0.75000000  1
  Ni  Ni4  1  0.93723308  0.43723308  0.75000000  1
  Ni  Ni5  1  0.75000000  0.06276692  0.75000000  1
