# generated using pymatgen
data_995_Cu2Ge4
_symmetry_space_group_name_H-M   'I4_1/amd'
_cell_length_a   11.69978465
_cell_length_b   11.69978465
_cell_length_c   11.69978465
_cell_angle_alpha   165.49938195
_cell_angle_beta   165.49938195
_cell_angle_gamma   20.56245695
_chemical_formula_structural   Cu2Ge4
_chemical_formula_sum   'Cu2 Ge4'
_cell_volume   100.39503239
loop_
 _symmetry_equiv_pos_site_id
 _symmetry_equiv_pos_as_xyz
  1  'x, y, z'
loop_
 _atom_type_symbol
  Cu
  Ge
loop_
 _atom_site_type_symbol
 _atom_site_label
 _atom_site_symmetry_multiplicity
 _atom_site_fract_x
 _atom_site_fract_y
 _atom_site_fract_z
 _atom_site_occupancy
  Cu  Cu0  1  0.00000000  0.00000000  0.00000000  1
  Cu  Cu1  1  0.25000000  0.75000000  0.50000000  1
  Ge  Ge0  1  0.57208723  0.57208723  0.00000000  1
  Ge  Ge1  1  0.67791277  0.17791277  0.50000000  1
  Ge  Ge2  1  0.42791277  0.42791277  0.00000000  1
  Ge  Ge3  1  0.82208723  0.32208723  0.50000000  1
