# generated using pymatgen
data_1001_Ge2Br
_symmetry_space_group_name_H-M   'I4/mmm'
_cell_length_a   6.13790249
_cell_length_b   6.13790249
_cell_length_c   6.13790249
_cell_angle_alpha   143.86732226
_cell_angle_beta   143.86732226
_cell_angle_gamma   52.02573809
_chemical_formula_structural   Ge2Br
_chemical_formula_sum   'Br1 Ge2'
_cell_volume   79.94408805
loop_
 _symmetry_equiv_pos_site_id
 _symmetry_equiv_pos_as_xyz
  1  'x, y, z'
loop_
 _atom_type_symbol
  Br
  Ge
loop_
 _atom_site_type_symbol
 _atom_site_label
 _atom_site_symmetry_multiplicity
 _atom_site_fract_x
 _atom_site_fract_y
 _atom_site_fract_z
 _atom_site_occupancy
  Br  Br0  1  0.00000000  0.00000000  0.00000000  1
  Ge  Ge0  1  0.76148647  0.76148647  0.00000000  1
  Ge  Ge1  1  0.23851353  0.23851353  0.00000000  1
