# generated using pymatgen
data_1005_Cu2Ge2
_symmetry_space_group_name_H-M   'P4/nmm'
_cell_length_a   2.76351899
_cell_length_b   2.76351899
_cell_length_c   8.06061667
_cell_angle_alpha   90.00000000
_cell_angle_beta   90.00000000
_cell_angle_gamma   90.00000000
_chemical_formula_structural   Cu2Ge2
_chemical_formula_sum   'Cu2 Ge2'
_cell_volume   61.55922943
loop_
 _symmetry_equiv_pos_site_id
 _symmetry_equiv_pos_as_xyz
  1  'x, y, z'
loop_
 _atom_type_symbol
  Cu
  Ge
loop_
 _atom_site_type_symbol
 _atom_site_label
 _atom_site_symmetry_multiplicity
 _atom_site_fract_x
 _atom_site_fract_y
 _atom_site_fract_z
 _atom_site_occupancy
  Cu  Cu0  1  0.25000000  0.25000000  0.60308889  1
  Cu  Cu1  1  0.75000000  0.75000000  0.39691111  1
  Ge  Ge0  1  0.25000000  0.25000000  0.16743149  1
  Ge  Ge1  1  0.75000000  0.75000000  0.83256851  1
