# generated using pymatgen
data_1008_NpU
_symmetry_space_group_name_H-M   'P4/mmm'
_cell_length_a   2.65827054
_cell_length_b   3.75936128
_cell_length_c   5.34976368
_cell_angle_alpha   90.00000000
_cell_angle_beta   90.00000000
_cell_angle_gamma   45.00000000
_chemical_formula_structural   NpU
_chemical_formula_sum   'Np1 U1'
_cell_volume   37.80357242
loop_
 _symmetry_equiv_pos_site_id
 _symmetry_equiv_pos_as_xyz
  1  'x, y, z'
loop_
 _atom_type_symbol
  Np
  U
loop_
 _atom_site_type_symbol
 _atom_site_label
 _atom_site_symmetry_multiplicity
 _atom_site_fract_x
 _atom_site_fract_y
 _atom_site_fract_z
 _atom_site_occupancy
  Np  Np0  1  0.00000000  0.00000000  0.00000000  1
  U  U0  1  0.00000003  0.49999930  0.49999927  1
