# generated using pymatgen
data_1009_RhU
_symmetry_space_group_name_H-M   'P-6m2'
_cell_length_a   2.93981800
_cell_length_b   2.93989502
_cell_length_c   4.85627900
_cell_angle_alpha   90.00000000
_cell_angle_beta   90.00000000
_cell_angle_gamma   119.99913342
_chemical_formula_structural   RhU
_chemical_formula_sum   'Rh1 U1'
_cell_volume   36.34882028
loop_
 _symmetry_equiv_pos_site_id
 _symmetry_equiv_pos_as_xyz
  1  'x, y, z'
loop_
 _atom_type_symbol
  Rh
  U
loop_
 _atom_site_type_symbol
 _atom_site_label
 _atom_site_symmetry_multiplicity
 _atom_site_fract_x
 _atom_site_fract_y
 _atom_site_fract_z
 _atom_site_occupancy
  Rh  Rh0  1  0.66666864  0.33333654  0.75000015  1
  U  U0  1  0.33333261  0.66666522  0.25000005  1
