# generated using pymatgen
data_1011_Cr2Rh2
_symmetry_space_group_name_H-M   'P4/nmm'
_cell_length_a   2.65132560
_cell_length_b   2.65132560
_cell_length_c   7.44060433
_cell_angle_alpha   90.00000000
_cell_angle_beta   90.00000000
_cell_angle_gamma   90.00000000
_chemical_formula_structural   Cr2Rh2
_chemical_formula_sum   'Cr2 Rh2'
_cell_volume   52.30393229
loop_
 _symmetry_equiv_pos_site_id
 _symmetry_equiv_pos_as_xyz
  1  'x, y, z'
loop_
 _atom_type_symbol
  Cr
  Rh
loop_
 _atom_site_type_symbol
 _atom_site_label
 _atom_site_symmetry_multiplicity
 _atom_site_fract_x
 _atom_site_fract_y
 _atom_site_fract_z
 _atom_site_occupancy
  Cr  Cr0  1  0.25000000  0.25000000  0.12282427  1
  Cr  Cr1  1  0.75000000  0.75000000  0.87717573  1
  Rh  Rh0  1  0.25000000  0.25000000  0.64312069  1
  Rh  Rh1  1  0.75000000  0.75000000  0.35687931  1
