# generated using pymatgen
data_1013_Ge2Br2
_symmetry_space_group_name_H-M   'P4/nmm'
_cell_length_a   3.81638318
_cell_length_b   3.81638318
_cell_length_c   8.35861528
_cell_angle_alpha   90.00000000
_cell_angle_beta   90.00000000
_cell_angle_gamma   90.00000000
_chemical_formula_structural   Ge2Br2
_chemical_formula_sum   'Br2 Ge2'
_cell_volume   121.74139748
loop_
 _symmetry_equiv_pos_site_id
 _symmetry_equiv_pos_as_xyz
  1  'x, y, z'
loop_
 _atom_type_symbol
  Br
  Ge
loop_
 _atom_site_type_symbol
 _atom_site_label
 _atom_site_symmetry_multiplicity
 _atom_site_fract_x
 _atom_site_fract_y
 _atom_site_fract_z
 _atom_site_occupancy
  Br  Br0  1  0.25000000  0.25000000  0.68687124  1
  Br  Br1  1  0.75000000  0.75000000  0.31312876  1
  Ge  Ge0  1  0.25000000  0.25000000  0.96833413  1
  Ge  Ge1  1  0.75000000  0.75000000  0.03166587  1
