# generated using pymatgen
data_1015_Cr8Rh
_symmetry_space_group_name_H-M   'I4/mmm'
_cell_length_a   6.35516522
_cell_length_b   6.35516522
_cell_length_c   8.76521106
_cell_angle_alpha   46.40050560
_cell_angle_beta   46.40050560
_cell_angle_gamma   87.19898881
_chemical_formula_structural   Cr8Rh
_chemical_formula_sum   'Cr8 Rh1'
_cell_volume   107.93472939
loop_
 _symmetry_equiv_pos_site_id
 _symmetry_equiv_pos_as_xyz
  1  'x, y, z'
loop_
 _atom_type_symbol
  Cr
  Rh
loop_
 _atom_site_type_symbol
 _atom_site_label
 _atom_site_symmetry_multiplicity
 _atom_site_fract_x
 _atom_site_fract_y
 _atom_site_fract_z
 _atom_site_occupancy
  Cr  Cr0  1  1.00000000  1.00000000  0.33570220  1
  Cr  Cr1  1  1.00000000  1.00000000  0.66429780  1
  Cr  Cr2  1  0.33570220  0.66429780  0.00000000  1
  Cr  Cr3  1  0.32350651  0.67649349  0.32350651  1
  Cr  Cr4  1  0.32350651  0.67649349  0.67649349  1
  Cr  Cr5  1  0.66429780  0.33570220  0.00000000  1
  Cr  Cr6  1  0.67649349  0.32350651  0.32350651  1
  Cr  Cr7  1  0.67649349  0.32350651  0.67649349  1
  Rh  Rh0  1  0.00000000  0.00000000  0.00000000  1
