# generated using pymatgen
data_1017_CuGa
_symmetry_space_group_name_H-M   'P-6m2'
_cell_length_a   2.83160400
_cell_length_b   2.83155724
_cell_length_c   4.06037900
_cell_angle_alpha   90.00000000
_cell_angle_beta   90.00000000
_cell_angle_gamma   120.00054631
_chemical_formula_structural   CuGa
_chemical_formula_sum   'Cu1 Ga1'
_cell_volume   28.19373906
loop_
 _symmetry_equiv_pos_site_id
 _symmetry_equiv_pos_as_xyz
  1  'x, y, z'
loop_
 _atom_type_symbol
  Cu
  Ga
loop_
 _atom_site_type_symbol
 _atom_site_label
 _atom_site_symmetry_multiplicity
 _atom_site_fract_x
 _atom_site_fract_y
 _atom_site_fract_z
 _atom_site_occupancy
  Cu  Cu0  1  0.66666489  0.33333096  0.75000150  1
  Ga  Ga0  1  0.33333516  0.66667008  0.25000132  1
