# generated using pymatgen
data_1020_MoV4
_symmetry_space_group_name_H-M   'I4/mmm'
_cell_length_a   3.39425310
_cell_length_b   6.88089559
_cell_length_c   3.39425310
_cell_angle_alpha   75.72103364
_cell_angle_beta   90.00000000
_cell_angle_gamma   104.27896636
_chemical_formula_structural   MoV4
_chemical_formula_sum   'Mo1 V4'
_cell_volume   74.29563713
loop_
 _symmetry_equiv_pos_site_id
 _symmetry_equiv_pos_as_xyz
  1  'x, y, z'
loop_
 _atom_type_symbol
  Mo
  V
loop_
 _atom_site_type_symbol
 _atom_site_label
 _atom_site_symmetry_multiplicity
 _atom_site_fract_x
 _atom_site_fract_y
 _atom_site_fract_z
 _atom_site_occupancy
  Mo  Mo0  1  0.00000000  0.00000000  0.00000000  1
  V  V0  1  0.25000000  0.50000000  0.25000000  1
  V  V1  1  0.39996909  0.79993818  0.60003091  1
  V  V2  1  0.60003091  0.20006182  0.39996909  1
  V  V3  1  0.75000000  0.50000000  0.75000000  1
