# generated using pymatgen
data_1022_SmGe5
_symmetry_space_group_name_H-M   'Immm'
_cell_length_a   4.02011895
_cell_length_b   6.20327522
_cell_length_c   6.17905048
_cell_angle_alpha   120.12977282
_cell_angle_beta   108.98389208
_cell_angle_gamma   90.00000000
_chemical_formula_structural   SmGe5
_chemical_formula_sum   'Ge5 Sm1'
_cell_volume   123.48712830
loop_
 _symmetry_equiv_pos_site_id
 _symmetry_equiv_pos_as_xyz
  1  'x, y, z'
loop_
 _atom_type_symbol
  Ge
  Sm
loop_
 _atom_site_type_symbol
 _atom_site_label
 _atom_site_symmetry_multiplicity
 _atom_site_fract_x
 _atom_site_fract_y
 _atom_site_fract_z
 _atom_site_occupancy
  Ge  Ge0  1  0.00000000  0.50000000  0.00000000  1
  Ge  Ge1  1  0.66924523  0.46192541  0.33849045  1
  Ge  Ge2  1  0.66924523  0.87656504  0.33849045  1
  Ge  Ge3  1  0.33075477  0.12343496  0.66150955  1
  Ge  Ge4  1  0.33075477  0.53807459  0.66150955  1
  Sm  Sm0  1  0.00000000  0.00000000  0.00000000  1
