# generated using pymatgen
data_1023_Ac4I6
_symmetry_space_group_name_H-M   'R -3 c'
_cell_length_a   7.50143293
_cell_length_b   7.50143292
_cell_length_c   9.93342239
_cell_angle_alpha   112.18420655
_cell_angle_beta   67.81579576
_cell_angle_gamma   120.00000008
_chemical_formula_structural   Ac4I6
_chemical_formula_sum   'Ac4 I6'
_cell_volume   435.64745566
loop_
 _symmetry_equiv_pos_site_id
 _symmetry_equiv_pos_as_xyz
  1  'x, y, z'
loop_
 _atom_type_symbol
  Ac
  I
loop_
 _atom_site_type_symbol
 _atom_site_label
 _atom_site_symmetry_multiplicity
 _atom_site_fract_x
 _atom_site_fract_y
 _atom_site_fract_z
 _atom_site_occupancy
  Ac  Ac0  1  0.66893707  0.33106293  0.99318878  1
  Ac  Ac1  1  0.83106293  0.16893707  0.50681122  1
  Ac  Ac2  1  0.16893707  0.83106293  0.49318878  1
  Ac  Ac3  1  0.33106293  0.66893707  0.00681122  1
  I  I0  1  0.25000000  0.09004715  0.25000000  1
  I  I1  1  0.90995285  0.40995285  0.25000000  1
  I  I2  1  0.59004715  0.75000000  0.25000000  1
  I  I3  1  0.40995285  0.25000000  0.75000000  1
  I  I4  1  0.09004715  0.59004715  0.75000000  1
  I  I5  1  0.75000000  0.90995285  0.75000000  1
