# generated using pymatgen
data_1024_Fe4Ga2
_symmetry_space_group_name_H-M   'I4/mcm'
_cell_length_a   4.69693324
_cell_length_b   4.69693324
_cell_length_c   4.69693324
_cell_angle_alpha   105.98589930
_cell_angle_beta   105.98589930
_cell_angle_gamma   116.69226863
_chemical_formula_structural   Fe4Ga2
_chemical_formula_sum   'Fe4 Ga2'
_cell_volume   78.80496905
loop_
 _symmetry_equiv_pos_site_id
 _symmetry_equiv_pos_as_xyz
  1  'x, y, z'
loop_
 _atom_type_symbol
  Fe
  Ga
loop_
 _atom_site_type_symbol
 _atom_site_label
 _atom_site_symmetry_multiplicity
 _atom_site_fract_x
 _atom_site_fract_y
 _atom_site_fract_z
 _atom_site_occupancy
  Fe  Fe0  1  0.35424889  0.14575111  0.50000000  1
  Fe  Fe1  1  0.64575111  0.85424889  0.50000000  1
  Fe  Fe2  1  0.14575111  0.64575111  0.79150222  1
  Fe  Fe3  1  0.85424889  0.35424889  0.20849778  1
  Ga  Ga0  1  0.75000000  0.75000000  0.00000000  1
  Ga  Ga1  1  0.25000000  0.25000000  0.00000000  1
