# generated using pymatgen
data_1026_Ge2P4
_symmetry_space_group_name_H-M   'Cmcm'
_cell_length_a   8.88242732
_cell_length_b   8.88242732
_cell_length_c   3.26649607
_cell_angle_alpha   90.00000000
_cell_angle_beta   90.00000000
_cell_angle_gamma   155.74961586
_chemical_formula_structural   Ge2P4
_chemical_formula_sum   'Ge2 P4'
_cell_volume   105.85139047
loop_
 _symmetry_equiv_pos_site_id
 _symmetry_equiv_pos_as_xyz
  1  'x, y, z'
loop_
 _atom_type_symbol
  Ge
  P
loop_
 _atom_site_type_symbol
 _atom_site_label
 _atom_site_symmetry_multiplicity
 _atom_site_fract_x
 _atom_site_fract_y
 _atom_site_fract_z
 _atom_site_occupancy
  Ge  Ge0  1  0.12005443  0.87994557  0.25000000  1
  Ge  Ge1  1  0.87994557  0.12005443  0.75000000  1
  P  P0  1  0.45362072  0.54637928  0.25000000  1
  P  P1  1  0.54637928  0.45362072  0.75000000  1
  P  P2  1  0.75744223  0.24255777  0.25000000  1
  P  P3  1  0.24255777  0.75744223  0.75000000  1
