# generated using pymatgen
data_1031_BaFe2
_symmetry_space_group_name_H-M   'I4/mmm'
_cell_length_a   6.12803394
_cell_length_b   6.12803394
_cell_length_c   6.12803394
_cell_angle_alpha   149.35747968
_cell_angle_beta   149.35747968
_cell_angle_gamma   43.88537841
_chemical_formula_structural   BaFe2
_chemical_formula_sum   'Ba1 Fe2'
_cell_volume   59.61175911
loop_
 _symmetry_equiv_pos_site_id
 _symmetry_equiv_pos_as_xyz
  1  'x, y, z'
loop_
 _atom_type_symbol
  Ba
  Fe
loop_
 _atom_site_type_symbol
 _atom_site_label
 _atom_site_symmetry_multiplicity
 _atom_site_fract_x
 _atom_site_fract_y
 _atom_site_fract_z
 _atom_site_occupancy
  Ba  Ba0  1  0.50000000  0.50000000  0.00000000  1
  Fe  Fe0  1  0.23571352  0.23571352  0.00000000  1
  Fe  Fe1  1  0.76428648  0.76428648  0.00000000  1
