# generated using pymatgen
data_1032_Fe2Ga
_symmetry_space_group_name_H-M   'I4/mmm'
_cell_length_a   4.55962593
_cell_length_b   4.55962593
_cell_length_c   4.55962593
_cell_angle_alpha   140.83407065
_cell_angle_beta   140.83407065
_cell_angle_gamma   56.58904391
_chemical_formula_structural   Fe2Ga
_chemical_formula_sum   'Fe2 Ga1'
_cell_volume   37.50785628
loop_
 _symmetry_equiv_pos_site_id
 _symmetry_equiv_pos_as_xyz
  1  'x, y, z'
loop_
 _atom_type_symbol
  Fe
  Ga
loop_
 _atom_site_type_symbol
 _atom_site_label
 _atom_site_symmetry_multiplicity
 _atom_site_fract_x
 _atom_site_fract_y
 _atom_site_fract_z
 _atom_site_occupancy
  Fe  Fe0  1  0.67230238  0.67230238  0.00000000  1
  Fe  Fe1  1  0.32769762  0.32769762  0.00000000  1
  Ga  Ga0  1  0.00000000  0.00000000  0.00000000  1
