# generated using pymatgen
data_1038_Ag6Al4
_symmetry_space_group_name_H-M   'P-1'
_cell_length_a   6.37464149
_cell_length_b   5.75935367
_cell_length_c   5.09605091
_cell_angle_alpha   73.83462066
_cell_angle_beta   81.08353800
_cell_angle_gamma   103.59880227
_chemical_formula_structural   Ag6Al4
_chemical_formula_sum   'Ag6 Al4'
_cell_volume   169.72044253
loop_
 _symmetry_equiv_pos_site_id
 _symmetry_equiv_pos_as_xyz
  1  'x, y, z'
loop_
 _atom_type_symbol
  Ag
  Al
loop_
 _atom_site_type_symbol
 _atom_site_label
 _atom_site_symmetry_multiplicity
 _atom_site_fract_x
 _atom_site_fract_y
 _atom_site_fract_z
 _atom_site_occupancy
  Ag  Ag0  1  0.01212040  0.99652701  0.01644873  1
  Ag  Ag1  1  0.58701210  0.08495738  0.18735470  1
  Ag  Ag2  1  0.21298790  0.21504262  0.41264530  1
  Ag  Ag3  1  0.78787960  0.30347299  0.58355127  1
  Ag  Ag4  1  0.01549764  0.50862374  0.98444870  1
  Ag  Ag5  1  0.78450236  0.79137626  0.61555130  1
  Al  Al0  1  0.39851689  0.40009490  0.80847243  1
  Al  Al1  1  0.60782089  0.60271184  0.20033247  1
  Al  Al2  1  0.19217911  0.69728816  0.39966753  1
  Al  Al3  1  0.40148311  0.89990510  0.79152757  1
