# generated using pymatgen
data_1047_K2Na4
_symmetry_space_group_name_H-M   'Pnnm'
_cell_length_a   6.41568789
_cell_length_b   3.85290087
_cell_length_c   11.14268572
_cell_angle_alpha   90.00000000
_cell_angle_beta   90.00000000
_cell_angle_gamma   90.00000000
_chemical_formula_structural   K2Na4
_chemical_formula_sum   'K2 Na4'
_cell_volume   275.43615364
loop_
 _symmetry_equiv_pos_site_id
 _symmetry_equiv_pos_as_xyz
  1  'x, y, z'
loop_
 _atom_type_symbol
  K
  Na
loop_
 _atom_site_type_symbol
 _atom_site_label
 _atom_site_symmetry_multiplicity
 _atom_site_fract_x
 _atom_site_fract_y
 _atom_site_fract_z
 _atom_site_occupancy
  K  K0  1  0.00000000  0.00000000  0.00000000  1
  K  K1  1  0.50000000  0.50000000  0.50000000  1
  Na  Na0  1  0.00000000  0.19284034  0.66231534  1
  Na  Na1  1  0.00000000  0.80715966  0.33768466  1
  Na  Na2  1  0.50000000  0.69284034  0.83768466  1
  Na  Na3  1  0.50000000  0.30715966  0.16231534  1
