# generated using pymatgen
data_1050_Pd8Sb4
_symmetry_space_group_name_H-M   'Cmc2_1'
_cell_length_a   9.04905981
_cell_length_b   9.04905981
_cell_length_c   7.04138782
_cell_angle_alpha   90.00000000
_cell_angle_beta   90.00000000
_cell_angle_gamma   158.06794179
_chemical_formula_structural   Pd8Sb4
_chemical_formula_sum   'Pd8 Sb4'
_cell_volume   215.35937141
loop_
 _symmetry_equiv_pos_site_id
 _symmetry_equiv_pos_as_xyz
  1  'x, y, z'
loop_
 _atom_type_symbol
  Pd
  Sb
loop_
 _atom_site_type_symbol
 _atom_site_label
 _atom_site_symmetry_multiplicity
 _atom_site_fract_x
 _atom_site_fract_y
 _atom_site_fract_z
 _atom_site_occupancy
  Pd  Pd0  1  0.96154786  0.03845214  0.00363414  1
  Pd  Pd1  1  0.03845214  0.96154786  0.50363414  1
  Pd  Pd2  1  0.17538130  0.82461870  0.10545438  1
  Pd  Pd3  1  0.82461870  0.17538130  0.60545438  1
  Pd  Pd4  1  0.32995456  0.67004544  0.95298870  1
  Pd  Pd5  1  0.67004544  0.32995456  0.45298870  1
  Pd  Pd6  1  0.58637014  0.41362986  0.82656884  1
  Pd  Pd7  1  0.41362986  0.58637014  0.32656884  1
  Sb  Sb0  1  0.55734150  0.44265850  0.19763647  1
  Sb  Sb1  1  0.44265850  0.55734150  0.69763647  1
  Sb  Sb2  1  0.20507016  0.79492984  0.72801746  1
  Sb  Sb3  1  0.79492984  0.20507016  0.22801746  1
