# generated using pymatgen
data_1051_W4Sb16
_symmetry_space_group_name_H-M   'I-43m'
_cell_length_a   8.88735110
_cell_length_b   8.88735110
_cell_length_c   8.88735110
_cell_angle_alpha   109.47122063
_cell_angle_beta   109.47122063
_cell_angle_gamma   109.47122063
_chemical_formula_structural   W4Sb16
_chemical_formula_sum   'Sb16 W4'
_cell_volume   540.37484249
loop_
 _symmetry_equiv_pos_site_id
 _symmetry_equiv_pos_as_xyz
  1  'x, y, z'
loop_
 _atom_type_symbol
  Sb
  W
loop_
 _atom_site_type_symbol
 _atom_site_label
 _atom_site_symmetry_multiplicity
 _atom_site_fract_x
 _atom_site_fract_y
 _atom_site_fract_z
 _atom_site_occupancy
  Sb  Sb0  1  0.60009086  0.60009086  0.60009086  1
  Sb  Sb1  1  0.39990914  0.00000000  0.00000000  1
  Sb  Sb2  1  0.00000000  0.39990914  0.00000000  1
  Sb  Sb3  1  0.00000000  0.00000000  0.39990914  1
  Sb  Sb4  1  0.69481207  0.69481207  0.00000000  1
  Sb  Sb5  1  0.30518793  0.30518793  0.00000000  1
  Sb  Sb6  1  0.69481207  0.00000000  0.69481207  1
  Sb  Sb7  1  0.30518793  0.00000000  0.30518793  1
  Sb  Sb8  1  1.00000000  0.69481207  0.69481207  1
  Sb  Sb9  1  0.00000000  0.30518793  0.30518793  1
  Sb  Sb10  1  0.25114419  0.75114419  0.50000000  1
  Sb  Sb11  1  0.74885581  0.24885581  0.50000000  1
  Sb  Sb12  1  0.75114419  0.50000000  0.25114419  1
  Sb  Sb13  1  0.24885581  0.50000000  0.74885581  1
  Sb  Sb14  1  0.50000000  0.25114419  0.75114419  1
  Sb  Sb15  1  0.50000000  0.74885581  0.24885581  1
  W  W0  1  0.30608171  0.30608171  0.30608171  1
  W  W1  1  0.69391829  0.00000000  0.00000000  1
  W  W2  1  1.00000000  0.69391829  0.00000000  1
  W  W3  1  1.00000000  0.00000000  0.69391829  1
