# generated using pymatgen
data_1059_Ir18Mo6
_symmetry_space_group_name_H-M   'Pmmn'
_cell_length_a   5.51650173
_cell_length_b   4.78720411
_cell_length_c   13.41462174
_cell_angle_alpha   90.00002105
_cell_angle_beta   90.00000000
_cell_angle_gamma   90.00000000
_chemical_formula_structural   Ir18Mo6
_chemical_formula_sum   'Ir18 Mo6'
_cell_volume   354.26164468
loop_
 _symmetry_equiv_pos_site_id
 _symmetry_equiv_pos_as_xyz
  1  'x, y, z'
loop_
 _atom_type_symbol
  Ir
  Mo
loop_
 _atom_site_type_symbol
 _atom_site_label
 _atom_site_symmetry_multiplicity
 _atom_site_fract_x
 _atom_site_fract_y
 _atom_site_fract_z
 _atom_site_occupancy
  Ir  Ir0  1  0.00066269  0.16599748  0.58370018  1
  Ir  Ir1  1  0.00066300  0.16599776  0.91627517  1
  Ir  Ir2  1  0.00242538  0.50115351  0.24999129  1
  Ir  Ir3  1  0.99756040  0.49883885  0.74998760  1
  Ir  Ir4  1  0.99933938  0.83399700  0.08371330  1
  Ir  Ir5  1  0.99934434  0.83399788  0.41626514  1
  Ir  Ir6  1  0.25000000  0.99672906  0.74998732  1
  Ir  Ir7  1  0.25000000  0.33193939  0.08602022  1
  Ir  Ir8  1  0.25000000  0.33193295  0.41395848  1
  Ir  Ir9  1  0.49933731  0.16599748  0.58370018  1
  Ir  Ir10  1  0.49933700  0.16599776  0.91627517  1
  Ir  Ir11  1  0.49757462  0.50115351  0.24999129  1
  Ir  Ir12  1  0.50243960  0.49883885  0.74998760  1
  Ir  Ir13  1  0.50066062  0.83399700  0.08371330  1
  Ir  Ir14  1  0.50065566  0.83399788  0.41626514  1
  Ir  Ir15  1  0.75000000  0.00326106  0.24999191  1
  Ir  Ir16  1  0.75000000  0.66808835  0.58600972  1
  Ir  Ir17  1  0.75000000  0.66808172  0.91396519  1
  Mo  Mo0  1  0.25000000  0.99885692  0.24999128  1
  Mo  Mo1  1  0.25000000  0.67316181  0.58616146  1
  Mo  Mo2  1  0.25000000  0.67316108  0.91381654  1
  Mo  Mo3  1  0.75000000  0.00115244  0.74998782  1
  Mo  Mo4  1  0.75000000  0.32683647  0.08615969  1
  Mo  Mo5  1  0.75000000  0.32683382  0.41381833  1
