# generated using pymatgen
data_1065_Cr3Rh
_symmetry_space_group_name_H-M   'P4/mmm'
_cell_length_a   2.84412129
_cell_length_b   2.85628592
_cell_length_c   6.04425990
_cell_angle_alpha   90.00000000
_cell_angle_beta   90.00000000
_cell_angle_gamma   90.00000000
_chemical_formula_structural   Cr3Rh
_chemical_formula_sum   'Cr3 Rh1'
_cell_volume   49.10129229
loop_
 _symmetry_equiv_pos_site_id
 _symmetry_equiv_pos_as_xyz
  1  'x, y, z'
loop_
 _atom_type_symbol
  Cr
  Rh
loop_
 _atom_site_type_symbol
 _atom_site_label
 _atom_site_symmetry_multiplicity
 _atom_site_fract_x
 _atom_site_fract_y
 _atom_site_fract_z
 _atom_site_occupancy
  Cr  Cr0  1  1.00000000  0.00000000  0.97382772  1
  Cr  Cr1  1  1.00000000  0.00000000  0.52617228  1
  Cr  Cr2  1  0.50000000  0.50000000  0.75000000  1
  Rh  Rh0  1  0.50000000  0.50000000  0.25000000  1
