# generated using pymatgen
data_1070_Ni5Ta
_symmetry_space_group_name_H-M   'F-43m'
_cell_length_a   4.65558434
_cell_length_b   4.65558434
_cell_length_c   4.65558434
_cell_angle_alpha   60.00000000
_cell_angle_beta   60.00000000
_cell_angle_gamma   60.00000000
_chemical_formula_structural   Ni5Ta
_chemical_formula_sum   'Ni5 Ta1'
_cell_volume   71.35223796
loop_
 _symmetry_equiv_pos_site_id
 _symmetry_equiv_pos_as_xyz
  1  'x, y, z'
loop_
 _atom_type_symbol
  Ni
  Ta
loop_
 _atom_site_type_symbol
 _atom_site_label
 _atom_site_symmetry_multiplicity
 _atom_site_fract_x
 _atom_site_fract_y
 _atom_site_fract_z
 _atom_site_occupancy
  Ni  Ni0  1  0.37541679  0.37541679  0.37541679  1
  Ni  Ni1  1  0.75000000  0.75000000  0.75000000  1
  Ni  Ni2  1  0.37541679  0.37541679  0.87374962  1
  Ni  Ni3  1  0.87374962  0.37541679  0.37541679  1
  Ni  Ni4  1  0.37541679  0.87374962  0.37541679  1
  Ta  Ta0  1  0.00000000  0.00000000  0.00000000  1
