# generated using pymatgen
data_1074_NiSn2
_symmetry_space_group_name_H-M   'I4/mmm'
_cell_length_a   6.51975501
_cell_length_b   6.51975501
_cell_length_c   6.51975501
_cell_angle_alpha   151.98317351
_cell_angle_beta   151.98317351
_cell_angle_gamma   40.03787520
_chemical_formula_structural   NiSn2
_chemical_formula_sum   'Ni1 Sn2'
_cell_volume   61.03080588
loop_
 _symmetry_equiv_pos_site_id
 _symmetry_equiv_pos_as_xyz
  1  'x, y, z'
loop_
 _atom_type_symbol
  Ni
  Sn
loop_
 _atom_site_type_symbol
 _atom_site_label
 _atom_site_symmetry_multiplicity
 _atom_site_fract_x
 _atom_site_fract_y
 _atom_site_fract_z
 _atom_site_occupancy
  Ni  Ni0  1  0.00000000  0.00000000  0.00000000  1
  Sn  Sn0  1  0.63441879  0.63441879  0.00000000  1
  Sn  Sn1  1  0.36558121  0.36558121  0.00000000  1
