# generated using pymatgen
data_107_Cr2Sn2
_symmetry_space_group_name_H-M   'P4/nmm'
_cell_length_a   3.03632534
_cell_length_b   3.03632534
_cell_length_c   7.98624851
_cell_angle_alpha   90.00000000
_cell_angle_beta   90.00000000
_cell_angle_gamma   90.00000000
_chemical_formula_structural   Cr2Sn2
_chemical_formula_sum   'Cr2 Sn2'
_cell_volume   73.62739384
loop_
 _symmetry_equiv_pos_site_id
 _symmetry_equiv_pos_as_xyz
  1  'x, y, z'
loop_
 _atom_type_symbol
  Cr
  Sn
loop_
 _atom_site_type_symbol
 _atom_site_label
 _atom_site_symmetry_multiplicity
 _atom_site_fract_x
 _atom_site_fract_y
 _atom_site_fract_z
 _atom_site_occupancy
  Cr  Cr0  1  0.25000000  0.25000000  0.56870427  1
  Cr  Cr1  1  0.75000000  0.75000000  0.43129573  1
  Sn  Sn0  1  0.25000000  0.25000000  0.19277128  1
  Sn  Sn1  1  0.75000000  0.75000000  0.80722872  1
