# generated using pymatgen
data_1080_AsBr2
_symmetry_space_group_name_H-M   'I4/mmm'
_cell_length_a   7.37808751
_cell_length_b   7.37808751
_cell_length_c   7.37808751
_cell_angle_alpha   153.41869371
_cell_angle_beta   153.41869371
_cell_angle_gamma   37.94507703
_chemical_formula_structural   AsBr2
_chemical_formula_sum   'As1 Br2'
_cell_volume   80.29286030
loop_
 _symmetry_equiv_pos_site_id
 _symmetry_equiv_pos_as_xyz
  1  'x, y, z'
loop_
 _atom_type_symbol
  As
  Br
loop_
 _atom_site_type_symbol
 _atom_site_label
 _atom_site_symmetry_multiplicity
 _atom_site_fract_x
 _atom_site_fract_y
 _atom_site_fract_z
 _atom_site_occupancy
  As  As0  1  0.00000000  0.00000000  0.00000000  1
  Br  Br0  1  0.62680691  0.62680691  0.00000000  1
  Br  Br1  1  0.37319309  0.37319309  0.00000000  1
