# generated using pymatgen
data_1084_Fe3Pb
_symmetry_space_group_name_H-M   'I4/mmm'
_cell_length_a   4.74825025
_cell_length_b   4.74825025
_cell_length_c   4.74825025
_cell_angle_alpha   131.77696921
_cell_angle_beta   131.77696921
_cell_angle_gamma   70.58150867
_chemical_formula_structural   Fe3Pb
_chemical_formula_sum   'Fe3 Pb1'
_cell_volume   58.32939781
loop_
 _symmetry_equiv_pos_site_id
 _symmetry_equiv_pos_as_xyz
  1  'x, y, z'
loop_
 _atom_type_symbol
  Fe
  Pb
loop_
 _atom_site_type_symbol
 _atom_site_label
 _atom_site_symmetry_multiplicity
 _atom_site_fract_x
 _atom_site_fract_y
 _atom_site_fract_z
 _atom_site_occupancy
  Fe  Fe0  1  0.25000000  0.75000000  0.50000000  1
  Fe  Fe1  1  0.50000000  0.50000000  0.00000000  1
  Fe  Fe2  1  0.75000000  0.25000000  0.50000000  1
  Pb  Pb0  1  0.00000000  0.00000000  0.00000000  1
