# generated using pymatgen
data_1087_Fe2Pb2
_symmetry_space_group_name_H-M   'P4/nmm'
_cell_length_a   3.19755421
_cell_length_b   3.19755421
_cell_length_c   8.33388384
_cell_angle_alpha   90.00000000
_cell_angle_beta   90.00000000
_cell_angle_gamma   90.00000000
_chemical_formula_structural   Fe2Pb2
_chemical_formula_sum   'Fe2 Pb2'
_cell_volume   85.20856962
loop_
 _symmetry_equiv_pos_site_id
 _symmetry_equiv_pos_as_xyz
  1  'x, y, z'
loop_
 _atom_type_symbol
  Fe
  Pb
loop_
 _atom_site_type_symbol
 _atom_site_label
 _atom_site_symmetry_multiplicity
 _atom_site_fract_x
 _atom_site_fract_y
 _atom_site_fract_z
 _atom_site_occupancy
  Fe  Fe0  1  0.25000000  0.25000000  0.56093038  1
  Fe  Fe1  1  0.75000000  0.75000000  0.43906962  1
  Pb  Pb0  1  0.25000000  0.25000000  0.20248274  1
  Pb  Pb1  1  0.75000000  0.75000000  0.79751726  1
