# generated using pymatgen
data_1089_MoP
_symmetry_space_group_name_H-M   'Pm -3 m'
_cell_length_a   3.00371073
_cell_length_b   4.25547047
_cell_length_c   4.25577241
_cell_angle_alpha   90.00000000
_cell_angle_beta   90.00000000
_cell_angle_gamma   90.00000000
_chemical_formula_structural   MoP
_chemical_formula_sum   'Mo2 P2'
_cell_volume   54.39814394
loop_
 _symmetry_equiv_pos_site_id
 _symmetry_equiv_pos_as_xyz
  1  'x, y, z'
loop_
 _atom_type_symbol
  Mo
  P
loop_
 _atom_site_type_symbol
 _atom_site_label
 _atom_site_symmetry_multiplicity
 _atom_site_fract_x
 _atom_site_fract_y
 _atom_site_fract_z
 _atom_site_occupancy
  Mo  Mo0  1  0.00000000  0.00000000  0.91725452  1
  Mo  Mo1  1  0.00000000  0.50000000  0.41607881  1
  P  P0  1  0.50000000  0.00000000  0.41717351  1
  P  P1  1  0.50000000  0.50000000  0.91615983  1
