# generated using pymatgen
data_1090_Al3K
_symmetry_space_group_name_H-M   'Fm -3 m'
_cell_length_a   5.01320523
_cell_length_b   5.01320523
_cell_length_c   5.01320523
_cell_angle_alpha   120.09828347
_cell_angle_beta   120.09828347
_cell_angle_gamma   89.82985217
_chemical_formula_structural   Al3K
_chemical_formula_sum   'Al3 K1'
_cell_volume   88.95773816
loop_
 _symmetry_equiv_pos_site_id
 _symmetry_equiv_pos_as_xyz
  1  'x, y, z'
loop_
 _atom_type_symbol
  Al
  K
loop_
 _atom_site_type_symbol
 _atom_site_label
 _atom_site_symmetry_multiplicity
 _atom_site_fract_x
 _atom_site_fract_y
 _atom_site_fract_z
 _atom_site_occupancy
  Al  Al0  1  0.49999986  0.49999986  0.00000000  1
  Al  Al1  1  0.75000098  0.25000064  0.50000034  1
  Al  Al2  1  0.25000064  0.75000098  0.50000034  1
  K  K0  1  0.00000000  0.00000000  0.00000000  1
