# generated using pymatgen
data_1095_Cr4Ta6
_symmetry_space_group_name_H-M   'Fddd'
_cell_length_a   5.32354912
_cell_length_b   5.32354912
_cell_length_c   7.05026347
_cell_angle_alpha   79.44185212
_cell_angle_beta   79.44185212
_cell_angle_gamma   120.97529795
_chemical_formula_structural   Cr4Ta6
_chemical_formula_sum   'Cr4 Ta6'
_cell_volume   159.01923825
loop_
 _symmetry_equiv_pos_site_id
 _symmetry_equiv_pos_as_xyz
  1  'x, y, z'
loop_
 _atom_type_symbol
  Cr
  Ta
loop_
 _atom_site_type_symbol
 _atom_site_label
 _atom_site_symmetry_multiplicity
 _atom_site_fract_x
 _atom_site_fract_y
 _atom_site_fract_z
 _atom_site_occupancy
  Cr  Cr0  1  0.65120351  0.15232749  0.89746071  1
  Cr  Cr1  1  0.04978820  0.54866422  0.10253929  1
  Cr  Cr2  1  0.29866422  0.29978820  0.60253929  1
  Cr  Cr3  1  0.90232749  0.90120351  0.39746071  1
  Ta  Ta0  1  0.70683481  0.70847157  0.78395772  1
  Ta  Ta1  1  0.49242930  0.49079254  0.21604228  1
  Ta  Ta2  1  0.24079254  0.74242930  0.71604228  1
  Ta  Ta3  1  0.45847157  0.95683481  0.28395772  1
  Ta  Ta4  1  0.09974418  0.09974418  0.00000000  1
  Ta  Ta5  1  0.84974418  0.34974418  0.50000000  1
