# generated using pymatgen
data_1096_Ga2W6
_symmetry_space_group_name_H-M   'I4/mmm'
_cell_length_a   8.73678581
_cell_length_b   8.73678581
_cell_length_c   8.73678581
_cell_angle_alpha   154.10087262
_cell_angle_beta   154.10087262
_cell_angle_gamma   36.95300478
_chemical_formula_structural   Ga2W6
_chemical_formula_sum   'Ga2 W6'
_cell_volume   127.05411713
loop_
 _symmetry_equiv_pos_site_id
 _symmetry_equiv_pos_as_xyz
  1  'x, y, z'
loop_
 _atom_type_symbol
  Ga
  W
loop_
 _atom_site_type_symbol
 _atom_site_label
 _atom_site_symmetry_multiplicity
 _atom_site_fract_x
 _atom_site_fract_y
 _atom_site_fract_z
 _atom_site_occupancy
  Ga  Ga0  1  0.37579759  0.37579759  0.00000000  1
  Ga  Ga1  1  0.62420241  0.62420241  0.00000000  1
  W  W0  1  0.50000000  0.00000000  0.50000000  1
  W  W1  1  0.00000000  0.50000000  0.50000000  1
  W  W2  1  0.75000000  0.25000000  0.50000000  1
  W  W3  1  0.25000000  0.75000000  0.50000000  1
  W  W4  1  0.12334005  0.12334005  0.00000000  1
  W  W5  1  0.87665995  0.87665995  0.00000000  1
