# generated using pymatgen
data_10_Ba2Bi3
_symmetry_space_group_name_H-M   'Immm'
_cell_length_a   4.83130248
_cell_length_b   6.89688853
_cell_length_c   6.89688853
_cell_angle_alpha   95.23149891
_cell_angle_beta   110.50274918
_cell_angle_gamma   110.50274918
_chemical_formula_structural   Ba2Bi3
_chemical_formula_sum   'Ba2 Bi3'
_cell_volume   195.53674047
loop_
 _symmetry_equiv_pos_site_id
 _symmetry_equiv_pos_as_xyz
  1  'x, y, z'
loop_
 _atom_type_symbol
  Ba
  Bi
loop_
 _atom_site_type_symbol
 _atom_site_label
 _atom_site_symmetry_multiplicity
 _atom_site_fract_x
 _atom_site_fract_y
 _atom_site_fract_z
 _atom_site_occupancy
  Ba  Ba0  1  0.50000000  0.72381568  0.27618432  1
  Ba  Ba1  1  0.50000000  0.27618432  0.72381568  1
  Bi  Bi0  1  0.00000000  0.00000000  0.00000000  1
  Bi  Bi1  1  0.79582225  0.29582225  0.29582225  1
  Bi  Bi2  1  0.20417775  0.70417775  0.70417775  1
