# generated using pymatgen
data_1103_NbP3
_symmetry_space_group_name_H-M   'P4/mmm'
_cell_length_a   3.23670100
_cell_length_b   3.23670100
_cell_length_c   5.79198064
_cell_angle_alpha   90.00000000
_cell_angle_beta   90.00000000
_cell_angle_gamma   90.00000000
_chemical_formula_structural   NbP3
_chemical_formula_sum   'Nb1 P3'
_cell_volume   60.67814082
loop_
 _symmetry_equiv_pos_site_id
 _symmetry_equiv_pos_as_xyz
  1  'x, y, z'
loop_
 _atom_type_symbol
  Nb
  P
loop_
 _atom_site_type_symbol
 _atom_site_label
 _atom_site_symmetry_multiplicity
 _atom_site_fract_x
 _atom_site_fract_y
 _atom_site_fract_z
 _atom_site_occupancy
  Nb  Nb0  1  0.00000000  0.00000000  0.00000000  1
  P  P0  1  0.50000000  0.50000000  0.78110366  1
  P  P1  1  0.00000000  0.00000000  0.50000000  1
  P  P2  1  0.50000000  0.50000000  0.21889634  1
