# generated using pymatgen
data_1105_Al4In2
_symmetry_space_group_name_H-M   'Cmcm'
_cell_length_a   9.51120833
_cell_length_b   9.51120833
_cell_length_c   4.54779273
_cell_angle_alpha   90.00000000
_cell_angle_beta   90.00000000
_cell_angle_gamma   162.03646812
_chemical_formula_structural   Al4In2
_chemical_formula_sum   'Al4 In2'
_cell_volume   126.88279878
loop_
 _symmetry_equiv_pos_site_id
 _symmetry_equiv_pos_as_xyz
  1  'x, y, z'
loop_
 _atom_type_symbol
  Al
  In
loop_
 _atom_site_type_symbol
 _atom_site_label
 _atom_site_symmetry_multiplicity
 _atom_site_fract_x
 _atom_site_fract_y
 _atom_site_fract_z
 _atom_site_occupancy
  Al  Al0  1  0.97630741  0.02369259  0.00000000  1
  Al  Al1  1  0.34386751  0.65613249  0.00000000  1
  Al  Al2  1  0.43391027  0.56608973  0.50000000  1
  Al  Al3  1  0.80147037  0.19852963  0.50000000  1
  In  In0  1  0.69258844  0.30741156  0.00000000  1
  In  In1  1  0.08518933  0.91481067  0.50000000  1
