# generated using pymatgen
data_110_Cr4Rh
_symmetry_space_group_name_H-M   'I4/mmm'
_cell_length_a   5.55943430
_cell_length_b   5.55943430
_cell_length_c   5.55943430
_cell_angle_alpha   141.39293006
_cell_angle_beta   141.39293006
_cell_angle_gamma   55.74431316
_chemical_formula_structural   Cr4Rh
_chemical_formula_sum   'Cr4 Rh1'
_cell_volume   66.39484296
loop_
 _symmetry_equiv_pos_site_id
 _symmetry_equiv_pos_as_xyz
  1  'x, y, z'
loop_
 _atom_type_symbol
  Cr
  Rh
loop_
 _atom_site_type_symbol
 _atom_site_label
 _atom_site_symmetry_multiplicity
 _atom_site_fract_x
 _atom_site_fract_y
 _atom_site_fract_z
 _atom_site_occupancy
  Cr  Cr0  1  0.25000000  0.75000000  0.50000000  1
  Cr  Cr1  1  0.38730660  0.38730660  0.00000000  1
  Cr  Cr2  1  0.61269340  0.61269340  0.00000000  1
  Cr  Cr3  1  0.75000000  0.25000000  0.50000000  1
  Rh  Rh0  1  0.00000000  0.00000000  0.00000000  1
