# generated using pymatgen
data_1118_Ag4Al3
_symmetry_space_group_name_H-M   'I4/mmm'
_cell_length_a   10.32617255
_cell_length_b   10.32617255
_cell_length_c   10.32617255
_cell_angle_alpha   160.82532403
_cell_angle_beta   160.82532403
_cell_angle_gamma   27.24673075
_chemical_formula_structural   Ag4Al3
_chemical_formula_sum   'Ag4 Al3'
_cell_volume   118.73472576
loop_
 _symmetry_equiv_pos_site_id
 _symmetry_equiv_pos_as_xyz
  1  'x, y, z'
loop_
 _atom_type_symbol
  Ag
  Al
loop_
 _atom_site_type_symbol
 _atom_site_label
 _atom_site_symmetry_multiplicity
 _atom_site_fract_x
 _atom_site_fract_y
 _atom_site_fract_z
 _atom_site_occupancy
  Ag  Ag0  1  0.84929394  0.84929394  0.00000000  1
  Ag  Ag1  1  0.15070606  0.15070606  0.00000000  1
  Ag  Ag2  1  0.57096627  0.57096627  0.00000000  1
  Ag  Ag3  1  0.42903373  0.42903373  0.00000000  1
  Al  Al0  1  0.00000000  0.00000000  0.00000000  1
  Al  Al1  1  0.71176596  0.71176596  0.00000000  1
  Al  Al2  1  0.28823404  0.28823404  0.00000000  1
