# generated using pymatgen
data_1120_Al6Pb18
_symmetry_space_group_name_H-M   'Pmmn'
_cell_length_a   5.96020985
_cell_length_b   6.88100353
_cell_length_c   16.82908904
_cell_angle_alpha   90.00000000
_cell_angle_beta   90.00000000
_cell_angle_gamma   90.00000000
_chemical_formula_structural   Al6Pb18
_chemical_formula_sum   'Al6 Pb18'
_cell_volume   690.19838655
loop_
 _symmetry_equiv_pos_site_id
 _symmetry_equiv_pos_as_xyz
  1  'x, y, z'
loop_
 _atom_type_symbol
  Al
  Pb
loop_
 _atom_site_type_symbol
 _atom_site_label
 _atom_site_symmetry_multiplicity
 _atom_site_fract_x
 _atom_site_fract_y
 _atom_site_fract_z
 _atom_site_occupancy
  Al  Al0  1  0.99538158  0.25000000  0.75000000  1
  Al  Al1  1  0.66524992  0.25000000  0.41934613  1
  Al  Al2  1  0.66524992  0.25000000  0.08065387  1
  Al  Al3  1  0.00461842  0.75000000  0.25000000  1
  Al  Al4  1  0.33475008  0.75000000  0.91934613  1
  Al  Al5  1  0.33475008  0.75000000  0.58065387  1
  Pb  Pb0  1  0.16997191  0.99992556  0.41709981  1
  Pb  Pb1  1  0.16997191  0.99992556  0.08290019  1
  Pb  Pb2  1  0.49233662  0.00072935  0.75000000  1
  Pb  Pb3  1  0.50766338  0.99927065  0.25000000  1
  Pb  Pb4  1  0.83002809  0.00007444  0.91709981  1
  Pb  Pb5  1  0.83002809  0.00007444  0.58290019  1
  Pb  Pb6  1  0.99146806  0.25000000  0.25000000  1
  Pb  Pb7  1  0.32996965  0.25000000  0.91744308  1
  Pb  Pb8  1  0.32996965  0.25000000  0.58255692  1
  Pb  Pb9  1  0.16997191  0.50007444  0.41709981  1
  Pb  Pb10  1  0.16997191  0.50007444  0.08290019  1
  Pb  Pb11  1  0.49233662  0.49927065  0.75000000  1
  Pb  Pb12  1  0.50766338  0.50072935  0.25000000  1
  Pb  Pb13  1  0.83002809  0.49992556  0.91709981  1
  Pb  Pb14  1  0.83002809  0.49992556  0.58290019  1
  Pb  Pb15  1  0.00853194  0.75000000  0.75000000  1
  Pb  Pb16  1  0.67003035  0.75000000  0.41744308  1
  Pb  Pb17  1  0.67003035  0.75000000  0.08255692  1
