# generated using pymatgen
data_1126_Mn4Sn
_symmetry_space_group_name_H-M   'I4/m'
_cell_length_a   4.56604169
_cell_length_b   4.56604169
_cell_length_c   4.56604169
_cell_angle_alpha   100.06751335
_cell_angle_beta   100.06751335
_cell_angle_gamma   130.57048683
_chemical_formula_structural   Mn4Sn
_chemical_formula_sum   'Mn4 Sn1'
_cell_volume   65.68793667
loop_
 _symmetry_equiv_pos_site_id
 _symmetry_equiv_pos_as_xyz
  1  'x, y, z'
loop_
 _atom_type_symbol
  Mn
  Sn
loop_
 _atom_site_type_symbol
 _atom_site_label
 _atom_site_symmetry_multiplicity
 _atom_site_fract_x
 _atom_site_fract_y
 _atom_site_fract_z
 _atom_site_occupancy
  Mn  Mn0  1  0.81522534  0.41580498  0.23103032  1
  Mn  Mn1  1  0.41580498  0.18477466  0.60057965  1
  Mn  Mn2  1  0.18477466  0.58419502  0.76896968  1
  Mn  Mn3  1  0.58419502  0.81522534  0.39942035  1
  Sn  Sn0  1  0.00000000  0.00000000  0.00000000  1
