# generated using pymatgen
data_1129_Al2Pb4
_symmetry_space_group_name_H-M   'Pnnm'
_cell_length_a   4.44877330
_cell_length_b   5.50017915
_cell_length_c   7.38457589
_cell_angle_alpha   90.00000000
_cell_angle_beta   90.00000000
_cell_angle_gamma   90.00000000
_chemical_formula_structural   Al2Pb4
_chemical_formula_sum   'Al2 Pb4'
_cell_volume   180.69355777
loop_
 _symmetry_equiv_pos_site_id
 _symmetry_equiv_pos_as_xyz
  1  'x, y, z'
loop_
 _atom_type_symbol
  Al
  Pb
loop_
 _atom_site_type_symbol
 _atom_site_label
 _atom_site_symmetry_multiplicity
 _atom_site_fract_x
 _atom_site_fract_y
 _atom_site_fract_z
 _atom_site_occupancy
  Al  Al0  1  0.00000000  0.00000000  0.00000000  1
  Al  Al1  1  0.50000000  0.50000000  0.50000000  1
  Pb  Pb0  1  0.00000000  0.21916397  0.64406282  1
  Pb  Pb1  1  0.00000000  0.78083603  0.35593718  1
  Pb  Pb2  1  0.50000000  0.71916397  0.85593718  1
  Pb  Pb3  1  0.50000000  0.28083603  0.14406282  1
