# generated using pymatgen
data_1137_Al4Pb8
_symmetry_space_group_name_H-M   'Pnma'
_cell_length_a   4.94524773
_cell_length_b   7.02331119
_cell_length_c   9.51386074
_cell_angle_alpha   90.00000000
_cell_angle_beta   90.00000000
_cell_angle_gamma   90.00000000
_chemical_formula_structural   Al4Pb8
_chemical_formula_sum   'Al4 Pb8'
_cell_volume   330.43554175
loop_
 _symmetry_equiv_pos_site_id
 _symmetry_equiv_pos_as_xyz
  1  'x, y, z'
loop_
 _atom_type_symbol
  Al
  Pb
loop_
 _atom_site_type_symbol
 _atom_site_label
 _atom_site_symmetry_multiplicity
 _atom_site_fract_x
 _atom_site_fract_y
 _atom_site_fract_z
 _atom_site_occupancy
  Al  Al0  1  0.25000000  0.71099502  0.39141564  1
  Al  Al1  1  0.75000000  0.78900498  0.89141564  1
  Al  Al2  1  0.25000000  0.21099502  0.10858436  1
  Al  Al3  1  0.75000000  0.28900498  0.60858436  1
  Pb  Pb0  1  0.25000000  0.04100538  0.80056295  1
  Pb  Pb1  1  0.75000000  0.45899462  0.30056295  1
  Pb  Pb2  1  0.25000000  0.54100538  0.69943705  1
  Pb  Pb3  1  0.75000000  0.95899462  0.19943705  1
  Pb  Pb4  1  0.25000000  0.15810658  0.43276629  1
  Pb  Pb5  1  0.75000000  0.34189342  0.93276629  1
  Pb  Pb6  1  0.25000000  0.65810658  0.06723371  1
  Pb  Pb7  1  0.75000000  0.84189342  0.56723371  1
