# generated using pymatgen
data_1147_K2P2
_symmetry_space_group_name_H-M   'Cmcm'
_cell_length_a   3.87149154
_cell_length_b   5.10566344
_cell_length_c   6.24407829
_cell_angle_alpha   66.01751114
_cell_angle_beta   90.00000000
_cell_angle_gamma   90.00000000
_chemical_formula_structural   K2P2
_chemical_formula_sum   'K2 P2'
_cell_volume   112.76856953
loop_
 _symmetry_equiv_pos_site_id
 _symmetry_equiv_pos_as_xyz
  1  'x, y, z'
loop_
 _atom_type_symbol
  K
  P
loop_
 _atom_site_type_symbol
 _atom_site_label
 _atom_site_symmetry_multiplicity
 _atom_site_fract_x
 _atom_site_fract_y
 _atom_site_fract_z
 _atom_site_occupancy
  K  K0  1  0.75000000  0.36180063  0.27886225  1
  K  K1  1  0.25000000  0.63819937  0.72113775  1
  P  P0  1  0.75000000  0.05466086  0.88978769  1
  P  P1  1  0.25000000  0.94533914  0.11021231  1
