# generated using pymatgen
data_1148_As4Br
_symmetry_space_group_name_H-M   'I4/mmm'
_cell_length_a   6.86374364
_cell_length_b   6.86374364
_cell_length_c   6.86374364
_cell_angle_alpha   141.90923038
_cell_angle_beta   141.90923038
_cell_angle_gamma   54.96555195
_chemical_formula_structural   As4Br
_chemical_formula_sum   'As4 Br1'
_cell_volume   122.18543670
loop_
 _symmetry_equiv_pos_site_id
 _symmetry_equiv_pos_as_xyz
  1  'x, y, z'
loop_
 _atom_type_symbol
  As
  Br
loop_
 _atom_site_type_symbol
 _atom_site_label
 _atom_site_symmetry_multiplicity
 _atom_site_fract_x
 _atom_site_fract_y
 _atom_site_fract_z
 _atom_site_occupancy
  As  As0  1  0.25000000  0.75000000  0.50000000  1
  As  As1  1  0.75000000  0.25000000  0.50000000  1
  As  As2  1  0.63703209  0.63703209  0.00000000  1
  As  As3  1  0.36296791  0.36296791  0.00000000  1
  Br  Br0  1  0.00000000  0.00000000  0.00000000  1
