# generated using pymatgen
data_1156_Fe44Mo2
_symmetry_space_group_name_H-M   'Fd -3 m'
_cell_length_a   9.03919152
_cell_length_b   9.03919152
_cell_length_c   9.03919152
_cell_angle_alpha   60.00000000
_cell_angle_beta   60.00000000
_cell_angle_gamma   60.00000000
_chemical_formula_structural   Fe44Mo2
_chemical_formula_sum   'Fe44 Mo2'
_cell_volume   522.24436992
loop_
 _symmetry_equiv_pos_site_id
 _symmetry_equiv_pos_as_xyz
  1  'x, y, z'
loop_
 _atom_type_symbol
  Fe
  Mo
loop_
 _atom_site_type_symbol
 _atom_site_label
 _atom_site_symmetry_multiplicity
 _atom_site_fract_x
 _atom_site_fract_y
 _atom_site_fract_z
 _atom_site_occupancy
  Fe  Fe0  1  0.32157359  0.55942462  0.79742820  1
  Fe  Fe1  1  0.32157359  0.29742820  0.05942462  1
  Fe  Fe2  1  0.05942462  0.82157359  0.32157359  1
  Fe  Fe3  1  0.79742820  0.82157359  0.32157359  1
  Fe  Fe4  1  0.32157359  0.55942462  0.32157359  1
  Fe  Fe5  1  0.32157359  0.29742820  0.32157359  1
  Fe  Fe6  1  0.79742820  0.82157359  0.05942462  1
  Fe  Fe7  1  0.05942462  0.82157359  0.79742820  1
  Fe  Fe8  1  0.79742820  0.55942462  0.32157359  1
  Fe  Fe9  1  0.05942462  0.29742820  0.32157359  1
  Fe  Fe10  1  0.32157359  0.82157359  0.79742820  1
  Fe  Fe11  1  0.32157359  0.82157359  0.05942462  1
  Fe  Fe12  1  0.67842641  0.70257180  0.94057538  1
  Fe  Fe13  1  0.67842641  0.44057538  0.20257180  1
  Fe  Fe14  1  0.94057538  0.17842641  0.67842641  1
  Fe  Fe15  1  0.20257180  0.17842641  0.67842641  1
  Fe  Fe16  1  0.67842641  0.17842641  0.94057538  1
  Fe  Fe17  1  0.67842641  0.17842641  0.20257180  1
  Fe  Fe18  1  0.20257180  0.44057538  0.67842641  1
  Fe  Fe19  1  0.94057538  0.70257180  0.67842641  1
  Fe  Fe20  1  0.20257180  0.17842641  0.94057538  1
  Fe  Fe21  1  0.94057538  0.17842641  0.20257180  1
  Fe  Fe22  1  0.67842641  0.70257180  0.67842641  1
  Fe  Fe23  1  0.67842641  0.44057538  0.67842641  1
  Fe  Fe24  1  0.48959515  0.26040485  0.48959515  1
  Fe  Fe25  1  0.76040485  0.98959515  0.76040485  1
  Fe  Fe26  1  0.76040485  0.26040485  0.48959515  1
  Fe  Fe27  1  0.48959515  0.98959515  0.76040485  1
  Fe  Fe28  1  0.48959515  0.26040485  0.76040485  1
  Fe  Fe29  1  0.76040485  0.98959515  0.48959515  1
  Fe  Fe30  1  0.51040485  0.01040485  0.23959515  1
  Fe  Fe31  1  0.23959515  0.73959515  0.51040485  1
  Fe  Fe32  1  0.23959515  0.01040485  0.23959515  1
  Fe  Fe33  1  0.51040485  0.73959515  0.51040485  1
  Fe  Fe34  1  0.51040485  0.73959515  0.23959515  1
  Fe  Fe35  1  0.23959515  0.01040485  0.51040485  1
  Fe  Fe36  1  0.00000000  0.00000000  0.00000000  1
  Fe  Fe37  1  0.00000000  0.50000000  0.50000000  1
  Fe  Fe38  1  0.50000000  0.50000000  0.00000000  1
  Fe  Fe39  1  0.00000000  0.50000000  0.00000000  1
  Fe  Fe40  1  0.50000000  0.50000000  0.50000000  1
  Fe  Fe41  1  0.50000000  0.00000000  0.00000000  1
  Fe  Fe42  1  0.00000000  0.00000000  0.50000000  1
  Fe  Fe43  1  0.50000000  0.00000000  0.50000000  1
  Mo  Mo0  1  0.12500000  0.62500000  0.12500000  1
  Mo  Mo1  1  0.87500000  0.37500000  0.87500000  1
