# generated using pymatgen
data_1165_Nb10Ge6
_symmetry_space_group_name_H-M   'I4/mcm'
_cell_length_a   5.17411258
_cell_length_b   7.67682448
_cell_length_c   7.67682448
_cell_angle_alpha   96.52092412
_cell_angle_beta   70.30606314
_cell_angle_gamma   109.69393686
_chemical_formula_structural   Nb10Ge6
_chemical_formula_sum   'Ge6 Nb10'
_cell_volume   270.29964523
loop_
 _symmetry_equiv_pos_site_id
 _symmetry_equiv_pos_as_xyz
  1  'x, y, z'
loop_
 _atom_type_symbol
  Ge
  Nb
loop_
 _atom_site_type_symbol
 _atom_site_label
 _atom_site_symmetry_multiplicity
 _atom_site_fract_x
 _atom_site_fract_y
 _atom_site_fract_z
 _atom_site_occupancy
  Ge  Ge0  1  0.25000000  0.00000000  0.00000000  1
  Ge  Ge1  1  0.75000000  0.00000000  0.00000000  1
  Ge  Ge2  1  0.16553320  0.50000000  0.16893359  1
  Ge  Ge3  1  0.33446680  0.16893359  0.50000000  1
  Ge  Ge4  1  0.66553320  0.83106641  0.50000000  1
  Ge  Ge5  1  0.83446680  0.50000000  0.83106641  1
  Nb  Nb0  1  0.57590213  0.29858025  0.14677600  1
  Nb  Nb1  1  0.77732187  0.70141975  0.14677600  1
  Nb  Nb2  1  0.92409787  0.14677600  0.29858025  1
  Nb  Nb3  1  0.27732187  0.85322400  0.29858025  1
  Nb  Nb4  1  0.25000000  0.50000000  0.50000000  1
  Nb  Nb5  1  0.75000000  0.50000000  0.50000000  1
  Nb  Nb6  1  0.72267813  0.14677600  0.70141975  1
  Nb  Nb7  1  0.07590213  0.85322400  0.70141975  1
  Nb  Nb8  1  0.22267813  0.29858025  0.85322400  1
  Nb  Nb9  1  0.42409787  0.70141975  0.85322400  1
