# generated using pymatgen
data_1168_Pb5Sr24
_symmetry_space_group_name_H-M   'I-43m'
_cell_length_a   12.14677156
_cell_length_b   12.14677156
_cell_length_c   12.14677156
_cell_angle_alpha   109.47122063
_cell_angle_beta   109.47122063
_cell_angle_gamma   109.47122063
_chemical_formula_structural   Pb5Sr24
_chemical_formula_sum   'Pb5 Sr24'
_cell_volume   1379.62387395
loop_
 _symmetry_equiv_pos_site_id
 _symmetry_equiv_pos_as_xyz
  1  'x, y, z'
loop_
 _atom_type_symbol
  Pb
  Sr
loop_
 _atom_site_type_symbol
 _atom_site_label
 _atom_site_symmetry_multiplicity
 _atom_site_fract_x
 _atom_site_fract_y
 _atom_site_fract_z
 _atom_site_occupancy
  Pb  Pb0  1  1.00000000  0.36077266  0.00000000  1
  Pb  Pb1  1  1.00000000  0.00000000  0.36077266  1
  Pb  Pb2  1  0.36077266  0.00000000  0.00000000  1
  Pb  Pb3  1  0.63922734  0.63922734  0.63922734  1
  Pb  Pb4  1  0.00000000  0.00000000  0.00000000  1
  Sr  Sr0  1  1.00000000  0.63813463  0.81585683  1
  Sr  Sr1  1  1.00000000  0.81585683  0.63813463  1
  Sr  Sr2  1  0.82227780  0.18414317  0.18414317  1
  Sr  Sr3  1  0.17772220  0.36186537  0.36186537  1
  Sr  Sr4  1  0.18414317  0.82227780  0.18414317  1
  Sr  Sr5  1  0.36186537  0.17772220  0.36186537  1
  Sr  Sr6  1  0.81585683  0.00000000  0.63813463  1
  Sr  Sr7  1  0.63813463  0.00000000  0.81585683  1
  Sr  Sr8  1  0.81585683  0.63813463  0.00000000  1
  Sr  Sr9  1  0.63813463  0.81585683  0.00000000  1
  Sr  Sr10  1  0.36186537  0.36186537  0.17772220  1
  Sr  Sr11  1  0.18414317  0.18414317  0.82227780  1
  Sr  Sr12  1  0.00000000  0.57562716  0.29830817  1
  Sr  Sr13  1  1.00000000  0.29830817  0.57562716  1
  Sr  Sr14  1  0.27731899  0.70169183  0.70169183  1
  Sr  Sr15  1  0.72268101  0.42437284  0.42437284  1
  Sr  Sr16  1  0.70169183  0.27731899  0.70169183  1
  Sr  Sr17  1  0.42437284  0.72268101  0.42437284  1
  Sr  Sr18  1  0.29830817  0.00000000  0.57562716  1
  Sr  Sr19  1  0.57562716  0.00000000  0.29830817  1
  Sr  Sr20  1  0.29830817  0.57562716  0.00000000  1
  Sr  Sr21  1  0.57562716  0.29830817  0.00000000  1
  Sr  Sr22  1  0.42437284  0.42437284  0.72268101  1
  Sr  Sr23  1  0.70169183  0.70169183  0.27731899  1
