# generated using pymatgen
data_116_Ba2Ge2
_symmetry_space_group_name_H-M   'Cmcm'
_cell_length_a   6.63776687
_cell_length_b   6.63776687
_cell_length_c   4.35297472
_cell_angle_alpha   90.00000000
_cell_angle_beta   90.00000000
_cell_angle_gamma   136.05629686
_chemical_formula_structural   Ba2Ge2
_chemical_formula_sum   'Ba2 Ge2'
_cell_volume   133.09418756
loop_
 _symmetry_equiv_pos_site_id
 _symmetry_equiv_pos_as_xyz
  1  'x, y, z'
loop_
 _atom_type_symbol
  Ba
  Ge
loop_
 _atom_site_type_symbol
 _atom_site_label
 _atom_site_symmetry_multiplicity
 _atom_site_fract_x
 _atom_site_fract_y
 _atom_site_fract_z
 _atom_site_occupancy
  Ba  Ba0  1  0.63750939  0.36249061  0.75000000  1
  Ba  Ba1  1  0.36249061  0.63750939  0.25000000  1
  Ge  Ge0  1  0.93721063  0.06278937  0.75000000  1
  Ge  Ge1  1  0.06278937  0.93721063  0.25000000  1
