# generated using pymatgen
data_1175_Ba5Pd
_symmetry_space_group_name_H-M   'Amm2'
_cell_length_a   4.51702066
_cell_length_b   10.23264810
_cell_length_c   6.83098610
_cell_angle_alpha   90.00000000
_cell_angle_beta   90.00000000
_cell_angle_gamma   77.24890268
_chemical_formula_structural   Ba5Pd
_chemical_formula_sum   'Ba5 Pd1'
_cell_volume   307.94893344
loop_
 _symmetry_equiv_pos_site_id
 _symmetry_equiv_pos_as_xyz
  1  'x, y, z'
loop_
 _atom_type_symbol
  Ba
  Pd
loop_
 _atom_site_type_symbol
 _atom_site_label
 _atom_site_symmetry_multiplicity
 _atom_site_fract_x
 _atom_site_fract_y
 _atom_site_fract_z
 _atom_site_occupancy
  Ba  Ba0  1  0.00440433  0.99119134  0.00000000  1
  Ba  Ba1  1  0.67251332  0.65497337  0.00000000  1
  Ba  Ba2  1  0.35241759  0.29516483  0.00000000  1
  Ba  Ba3  1  0.49204646  0.01590707  0.50000000  1
  Ba  Ba4  1  0.26347401  0.47305197  0.50000000  1
  Pd  Pd0  1  0.88181096  0.23637808  0.50000000  1
