# generated using pymatgen
data_1178_P12As17
_symmetry_space_group_name_H-M   'I-43m'
_cell_length_a   9.75930971
_cell_length_b   9.75930971
_cell_length_c   9.75930971
_cell_angle_alpha   109.47122063
_cell_angle_beta   109.47122063
_cell_angle_gamma   109.47122063
_chemical_formula_structural   P12As17
_chemical_formula_sum   'As17 P12'
_cell_volume   715.54246229
loop_
 _symmetry_equiv_pos_site_id
 _symmetry_equiv_pos_as_xyz
  1  'x, y, z'
loop_
 _atom_type_symbol
  As
  P
loop_
 _atom_site_type_symbol
 _atom_site_label
 _atom_site_symmetry_multiplicity
 _atom_site_fract_x
 _atom_site_fract_y
 _atom_site_fract_z
 _atom_site_occupancy
  As  As0  1  0.78647791  0.00000000  0.41894822  1
  As  As1  1  0.41894822  0.00000000  0.78647791  1
  As  As2  1  0.58105178  0.36752969  0.58105178  1
  As  As3  1  0.21352209  0.63247031  0.21352209  1
  As  As4  1  1.00000000  0.78647791  0.41894822  1
  As  As5  1  0.00000000  0.41894822  0.78647791  1
  As  As6  1  0.63247031  0.21352209  0.21352209  1
  As  As7  1  0.36752969  0.58105178  0.58105178  1
  As  As8  1  0.21352209  0.21352209  0.63247031  1
  As  As9  1  0.58105178  0.58105178  0.36752969  1
  As  As10  1  0.78647791  0.41894822  0.00000000  1
  As  As11  1  0.41894822  0.78647791  0.00000000  1
  As  As12  1  0.00000000  0.00000000  0.66391041  1
  As  As13  1  0.66391041  0.00000000  0.00000000  1
  As  As14  1  0.33608959  0.33608959  0.33608959  1
  As  As15  1  0.00000000  0.66391041  0.00000000  1
  As  As16  1  0.00000000  0.00000000  0.00000000  1
  P  P0  1  0.15251362  0.00000000  0.37547043  1
  P  P1  1  0.37547043  0.00000000  0.15251362  1
  P  P2  1  0.62452957  0.77704320  0.62452957  1
  P  P3  1  0.84748638  0.22295680  0.84748638  1
  P  P4  1  1.00000000  0.15251362  0.37547043  1
  P  P5  1  1.00000000  0.37547043  0.15251362  1
  P  P6  1  0.22295680  0.84748638  0.84748638  1
  P  P7  1  0.77704320  0.62452957  0.62452957  1
  P  P8  1  0.84748638  0.84748638  0.22295680  1
  P  P9  1  0.62452957  0.62452957  0.77704320  1
  P  P10  1  0.15251362  0.37547043  0.00000000  1
  P  P11  1  0.37547043  0.15251362  0.00000000  1
