# generated using pymatgen
data_1179_As4Br2
_symmetry_space_group_name_H-M   'I4/mcm'
_cell_length_a   5.94122069
_cell_length_b   5.94122069
_cell_length_c   5.94122069
_cell_angle_alpha   109.36547898
_cell_angle_beta   109.36547898
_cell_angle_gamma   109.68291156
_chemical_formula_structural   As4Br2
_chemical_formula_sum   'As4 Br2'
_cell_volume   161.43612182
loop_
 _symmetry_equiv_pos_site_id
 _symmetry_equiv_pos_as_xyz
  1  'x, y, z'
loop_
 _atom_type_symbol
  As
  Br
loop_
 _atom_site_type_symbol
 _atom_site_label
 _atom_site_symmetry_multiplicity
 _atom_site_fract_x
 _atom_site_fract_y
 _atom_site_fract_z
 _atom_site_occupancy
  As  As0  1  0.38440368  0.11559632  0.50000000  1
  As  As1  1  0.61559632  0.88440368  0.50000000  1
  As  As2  1  0.11559632  0.61559632  0.73119264  1
  As  As3  1  0.88440368  0.38440368  0.26880736  1
  Br  Br0  1  0.75000000  0.75000000  0.00000000  1
  Br  Br1  1  0.25000000  0.25000000  0.00000000  1
