# generated using pymatgen
data_1186_Ag6Al2
_symmetry_space_group_name_H-M   'Cmmm'
_cell_length_a   7.10221889
_cell_length_b   2.97265389
_cell_length_c   7.10221889
_cell_angle_alpha   90.00000000
_cell_angle_beta   113.57225328
_cell_angle_gamma   90.00000000
_chemical_formula_structural   Ag6Al2
_chemical_formula_sum   'Ag6 Al2'
_cell_volume   137.43321126
loop_
 _symmetry_equiv_pos_site_id
 _symmetry_equiv_pos_as_xyz
  1  'x, y, z'
loop_
 _atom_type_symbol
  Ag
  Al
loop_
 _atom_site_type_symbol
 _atom_site_label
 _atom_site_symmetry_multiplicity
 _atom_site_fract_x
 _atom_site_fract_y
 _atom_site_fract_z
 _atom_site_occupancy
  Ag  Ag0  1  0.96965428  0.00000000  0.96965428  1
  Ag  Ag1  1  0.13149379  0.50000000  0.36850621  1
  Ag  Ag2  1  0.25000000  0.00000000  0.75000000  1
  Ag  Ag3  1  0.36850621  0.50000000  0.13149379  1
  Ag  Ag4  1  0.53034572  0.00000000  0.53034572  1
  Ag  Ag5  1  0.75000000  0.00000000  0.25000000  1
  Al  Al0  1  0.61230236  0.50000000  0.88769764  1
  Al  Al1  1  0.88769764  0.50000000  0.61230236  1
