# generated using pymatgen
data_1187_AsBr8
_symmetry_space_group_name_H-M   'I4/mmm'
_cell_length_a   7.30590452
_cell_length_b   7.30590452
_cell_length_c   7.30590452
_cell_angle_alpha   106.31013720
_cell_angle_beta   106.31013720
_cell_angle_gamma   115.99718317
_chemical_formula_structural   AsBr8
_chemical_formula_sum   'As1 Br8'
_cell_volume   297.23940945
loop_
 _symmetry_equiv_pos_site_id
 _symmetry_equiv_pos_as_xyz
  1  'x, y, z'
loop_
 _atom_type_symbol
  As
  Br
loop_
 _atom_site_type_symbol
 _atom_site_label
 _atom_site_symmetry_multiplicity
 _atom_site_fract_x
 _atom_site_fract_y
 _atom_site_fract_z
 _atom_site_occupancy
  As  As0  1  0.00000000  0.00000000  0.00000000  1
  Br  Br0  1  0.33440169  0.66559831  0.00000000  1
  Br  Br1  1  0.66559831  0.33440169  0.00000000  1
  Br  Br2  1  0.00000000  0.29864970  0.29864970  1
  Br  Br3  1  0.66559831  0.66559831  0.33119661  1
  Br  Br4  1  0.29864970  0.00000000  0.29864970  1
  Br  Br5  1  0.33440169  0.33440169  0.66880339  1
  Br  Br6  1  0.00000000  0.70135030  0.70135030  1
  Br  Br7  1  0.70135030  0.00000000  0.70135030  1
