# generated using pymatgen
data_1188_Ca6P2
_symmetry_space_group_name_H-M   'Pmmn'
_cell_length_a   3.93468892
_cell_length_b   9.63445353
_cell_length_c   6.89173945
_cell_angle_alpha   90.00000000
_cell_angle_beta   90.00000000
_cell_angle_gamma   90.00000000
_chemical_formula_structural   Ca6P2
_chemical_formula_sum   'Ca6 P2'
_cell_volume   261.25603943
loop_
 _symmetry_equiv_pos_site_id
 _symmetry_equiv_pos_as_xyz
  1  'x, y, z'
loop_
 _atom_type_symbol
  Ca
  P
loop_
 _atom_site_type_symbol
 _atom_site_label
 _atom_site_symmetry_multiplicity
 _atom_site_fract_x
 _atom_site_fract_y
 _atom_site_fract_z
 _atom_site_occupancy
  Ca  Ca0  1  0.50000000  0.53628481  0.00000000  1
  Ca  Ca1  1  0.00000000  0.46371519  0.50000000  1
  Ca  Ca2  1  0.00000000  0.82362224  0.26199112  1
  Ca  Ca3  1  0.00000000  0.82362224  0.73800888  1
  Ca  Ca4  1  0.50000000  0.17637776  0.76199112  1
  Ca  Ca5  1  0.50000000  0.17637776  0.23800888  1
  P  P0  1  0.00000000  0.32383106  0.00000000  1
  P  P1  1  0.50000000  0.67616894  0.50000000  1
