# generated using pymatgen
data_1194_MnSb8
_symmetry_space_group_name_H-M   'I4/mmm'
_cell_length_a   8.41384376
_cell_length_b   8.41384376
_cell_length_c   8.41384376
_cell_angle_alpha   92.78965659
_cell_angle_beta   92.78965659
_cell_angle_gamma   154.51008989
_chemical_formula_structural   MnSb8
_chemical_formula_sum   'Mn1 Sb8'
_cell_volume   250.01900315
loop_
 _symmetry_equiv_pos_site_id
 _symmetry_equiv_pos_as_xyz
  1  'x, y, z'
loop_
 _atom_type_symbol
  Mn
  Sb
loop_
 _atom_site_type_symbol
 _atom_site_label
 _atom_site_symmetry_multiplicity
 _atom_site_fract_x
 _atom_site_fract_y
 _atom_site_fract_z
 _atom_site_occupancy
  Mn  Mn0  1  0.00000000  0.00000000  0.00000000  1
  Sb  Sb0  1  0.63039708  0.63039708  0.26079416  1
  Sb  Sb1  1  0.36960292  0.36960292  0.73920584  1
  Sb  Sb2  1  1.00000000  0.34611751  0.34611751  1
  Sb  Sb3  1  0.36960292  0.63039708  0.00000000  1
  Sb  Sb4  1  0.65388249  0.00000000  0.65388249  1
  Sb  Sb5  1  0.63039708  0.36960292  0.00000000  1
  Sb  Sb6  1  0.00000000  0.65388249  0.65388249  1
  Sb  Sb7  1  0.34611751  1.00000000  0.34611751  1
