# generated using pymatgen
data_1196_Ba4Sb2
_symmetry_space_group_name_H-M   'I4/mcm'
_cell_length_a   7.22402184
_cell_length_b   7.22402184
_cell_length_c   7.22402184
_cell_angle_alpha   112.51445869
_cell_angle_beta   112.51445869
_cell_angle_gamma   103.54251797
_chemical_formula_structural   Ba4Sb2
_chemical_formula_sum   'Ba4 Sb2'
_cell_volume   287.91421763
loop_
 _symmetry_equiv_pos_site_id
 _symmetry_equiv_pos_as_xyz
  1  'x, y, z'
loop_
 _atom_type_symbol
  Ba
  Sb
loop_
 _atom_site_type_symbol
 _atom_site_label
 _atom_site_symmetry_multiplicity
 _atom_site_fract_x
 _atom_site_fract_y
 _atom_site_fract_z
 _atom_site_occupancy
  Ba  Ba0  1  0.28156505  0.21843495  0.50000000  1
  Ba  Ba1  1  0.71843495  0.78156505  0.50000000  1
  Ba  Ba2  1  0.21843495  0.71843495  0.93686990  1
  Ba  Ba3  1  0.78156505  0.28156505  0.06313010  1
  Sb  Sb0  1  0.75000000  0.75000000  0.00000000  1
  Sb  Sb1  1  0.25000000  0.25000000  0.00000000  1
