# generated using pymatgen
data_11_Mo3W3
_symmetry_space_group_name_H-M   'C2/m'
_cell_length_a   3.17561374
_cell_length_b   5.27278509
_cell_length_c   6.34997738
_cell_angle_alpha   72.44268878
_cell_angle_beta   90.00000000
_cell_angle_gamma   107.52563543
_chemical_formula_structural   Mo3W3
_chemical_formula_sum   'Mo3 W3'
_cell_volume   96.18374638
loop_
 _symmetry_equiv_pos_site_id
 _symmetry_equiv_pos_as_xyz
  1  'x, y, z'
loop_
 _atom_type_symbol
  Mo
  W
loop_
 _atom_site_type_symbol
 _atom_site_label
 _atom_site_symmetry_multiplicity
 _atom_site_fract_x
 _atom_site_fract_y
 _atom_site_fract_z
 _atom_site_occupancy
  Mo  Mo0  1  0.02765782  0.05531563  0.94386763  1
  Mo  Mo1  1  0.36110605  0.72221209  0.77857462  1
  Mo  Mo2  1  0.69464002  0.38928005  0.61086393  1
  W  W0  1  0.02798325  0.05596650  0.44474569  1
  W  W1  1  0.36102003  0.72204007  0.27844117  1
  W  W2  1  0.69425950  0.38851899  0.11017364  1
