# generated using pymatgen
data_1200_K4Ni2
_symmetry_space_group_name_H-M   'Cmcm'
_cell_length_a   8.13832613
_cell_length_b   8.13832613
_cell_length_c   5.59703209
_cell_angle_alpha   90.00000000
_cell_angle_beta   90.00000000
_cell_angle_gamma   139.19748971
_chemical_formula_structural   K4Ni2
_chemical_formula_sum   'K4 Ni2'
_cell_volume   242.23831861
loop_
 _symmetry_equiv_pos_site_id
 _symmetry_equiv_pos_as_xyz
  1  'x, y, z'
loop_
 _atom_type_symbol
  K
  Ni
loop_
 _atom_site_type_symbol
 _atom_site_label
 _atom_site_symmetry_multiplicity
 _atom_site_fract_x
 _atom_site_fract_y
 _atom_site_fract_z
 _atom_site_occupancy
  K  K0  1  0.61855233  0.86042639  0.25000000  1
  K  K1  1  0.38144767  0.13957361  0.75000000  1
  K  K2  1  0.86042639  0.61855233  0.25000000  1
  K  K3  1  0.13957361  0.38144767  0.75000000  1
  Ni  Ni0  1  0.21325829  0.21325829  0.25000000  1
  Ni  Ni1  1  0.78674171  0.78674171  0.75000000  1
