# generated using pymatgen
data_1201_Cu6Pt4
_symmetry_space_group_name_H-M   'P-1'
_cell_length_a   5.93161882
_cell_length_b   5.41472257
_cell_length_c   4.64383975
_cell_angle_alpha   73.07605594
_cell_angle_beta   82.90128200
_cell_angle_gamma   103.41933934
_chemical_formula_structural   Cu6Pt4
_chemical_formula_sum   'Cu6 Pt4'
_cell_volume   135.83659061
loop_
 _symmetry_equiv_pos_site_id
 _symmetry_equiv_pos_as_xyz
  1  'x, y, z'
loop_
 _atom_type_symbol
  Cu
  Pt
loop_
 _atom_site_type_symbol
 _atom_site_label
 _atom_site_symmetry_multiplicity
 _atom_site_fract_x
 _atom_site_fract_y
 _atom_site_fract_z
 _atom_site_occupancy
  Cu  Cu0  1  0.99792944  0.00527315  0.99815202  1
  Cu  Cu1  1  0.60771366  0.10322527  0.19712445  1
  Cu  Cu2  1  0.19228634  0.19677473  0.40287555  1
  Cu  Cu3  1  0.80207056  0.29472685  0.60184798  1
  Cu  Cu4  1  0.99685847  0.49236126  0.00192249  1
  Cu  Cu5  1  0.80314153  0.80763874  0.59807751  1
  Pt  Pt0  1  0.39501968  0.39320040  0.80935322  1
  Pt  Pt1  1  0.61726586  0.60361886  0.19871852  1
  Pt  Pt2  1  0.18273414  0.69638114  0.40128148  1
  Pt  Pt3  1  0.40498032  0.90679960  0.79064678  1
