# generated using pymatgen
data_1203_BaCu5
_symmetry_space_group_name_H-M   'Amm2'
_cell_length_a   8.28122448
_cell_length_b   8.28122448
_cell_length_c   3.78611821
_cell_angle_alpha   90.00000000
_cell_angle_beta   90.00000000
_cell_angle_gamma   154.82443835
_chemical_formula_structural   BaCu5
_chemical_formula_sum   'Ba1 Cu5'
_cell_volume   110.45209235
loop_
 _symmetry_equiv_pos_site_id
 _symmetry_equiv_pos_as_xyz
  1  'x, y, z'
loop_
 _atom_type_symbol
  Ba
  Cu
loop_
 _atom_site_type_symbol
 _atom_site_label
 _atom_site_symmetry_multiplicity
 _atom_site_fract_x
 _atom_site_fract_y
 _atom_site_fract_z
 _atom_site_occupancy
  Ba  Ba0  1  0.00309166  0.99690834  0.00000000  1
  Cu  Cu0  1  0.29146290  0.70853710  0.00000000  1
  Cu  Cu1  1  0.68146303  0.31853697  0.00000000  1
  Cu  Cu2  1  0.38977091  0.61022909  0.50000000  1
  Cu  Cu3  1  0.78779467  0.21220533  0.50000000  1
  Cu  Cu4  1  0.17975017  0.82024983  0.50000000  1
