# generated using pymatgen
data_1208_W16Sb4
_symmetry_space_group_name_H-M   'I23'
_cell_length_a   7.92236232
_cell_length_b   7.92236232
_cell_length_c   7.92236232
_cell_angle_alpha   109.47122063
_cell_angle_beta   109.47122063
_cell_angle_gamma   109.47122063
_chemical_formula_structural   W16Sb4
_chemical_formula_sum   'Sb4 W16'
_cell_volume   382.77380667
loop_
 _symmetry_equiv_pos_site_id
 _symmetry_equiv_pos_as_xyz
  1  'x, y, z'
loop_
 _atom_type_symbol
  Sb
  W
loop_
 _atom_site_type_symbol
 _atom_site_label
 _atom_site_symmetry_multiplicity
 _atom_site_fract_x
 _atom_site_fract_y
 _atom_site_fract_z
 _atom_site_occupancy
  Sb  Sb0  1  0.31975857  0.31975857  0.31975857  1
  Sb  Sb1  1  0.68024143  0.00000000  0.00000000  1
  Sb  Sb2  1  1.00000000  0.68024143  0.00000000  1
  Sb  Sb3  1  1.00000000  0.00000000  0.68024143  1
  W  W0  1  0.65518084  0.65518084  0.65518084  1
  W  W1  1  0.34481916  0.00000000  0.00000000  1
  W  W2  1  1.00000000  0.34481916  0.00000000  1
  W  W3  1  1.00000000  0.00000000  0.34481916  1
  W  W4  1  0.65570226  0.65570226  0.00000000  1
  W  W5  1  0.34429774  0.34429774  0.00000000  1
  W  W6  1  0.65570226  0.00000000  0.65570226  1
  W  W7  1  0.34429774  0.00000000  0.34429774  1
  W  W8  1  1.00000000  0.65570226  0.65570226  1
  W  W9  1  1.00000000  0.34429774  0.34429774  1
  W  W10  1  0.24388390  0.74388390  0.50000000  1
  W  W11  1  0.75611610  0.25611610  0.50000000  1
  W  W12  1  0.74388390  0.50000000  0.24388390  1
  W  W13  1  0.25611610  0.50000000  0.75611610  1
  W  W14  1  0.50000000  0.24388390  0.74388390  1
  W  W15  1  0.50000000  0.75611610  0.25611610  1
