# generated using pymatgen
data_1209_Ag4Al
_symmetry_space_group_name_H-M   'Immm'
_cell_length_a   2.90813421
_cell_length_b   7.73595724
_cell_length_c   4.06506901
_cell_angle_alpha   105.23059617
_cell_angle_beta   90.00235085
_cell_angle_gamma   79.16655654
_chemical_formula_structural   Ag4Al
_chemical_formula_sum   'Ag4 Al1'
_cell_volume   86.55035601
loop_
 _symmetry_equiv_pos_site_id
 _symmetry_equiv_pos_as_xyz
  1  'x, y, z'
loop_
 _atom_type_symbol
  Ag
  Al
loop_
 _atom_site_type_symbol
 _atom_site_label
 _atom_site_symmetry_multiplicity
 _atom_site_fract_x
 _atom_site_fract_y
 _atom_site_fract_z
 _atom_site_occupancy
  Ag  Ag0  1  0.00381597  0.99233790  0.99618988  1
  Ag  Ag1  1  0.40134474  0.19731544  0.59866226  1
  Ag  Ag2  1  0.79865526  0.40268456  0.20133774  1
  Ag  Ag3  1  0.19618403  0.60766210  0.80381012  1
  Al  Al0  1  0.60000000  0.80000000  0.40000000  1
