# generated using pymatgen
data_1210_In2Ge2
_symmetry_space_group_name_H-M   'Imma'
_cell_length_a   6.28129396
_cell_length_b   6.28129396
_cell_length_c   6.28129396
_cell_angle_alpha   144.99659592
_cell_angle_beta   137.79185370
_cell_angle_gamma   55.95616213
_chemical_formula_structural   In2Ge2
_chemical_formula_sum   'Ge2 In2'
_cell_volume   94.79642220
loop_
 _symmetry_equiv_pos_site_id
 _symmetry_equiv_pos_as_xyz
  1  'x, y, z'
loop_
 _atom_type_symbol
  Ge
  In
loop_
 _atom_site_type_symbol
 _atom_site_label
 _atom_site_symmetry_multiplicity
 _atom_site_fract_x
 _atom_site_fract_y
 _atom_site_fract_z
 _atom_site_occupancy
  Ge  Ge0  1  0.04034369  0.04034369  1.00000000  1
  Ge  Ge1  1  0.20965631  0.70965631  0.50000000  1
  In  In0  1  0.47946329  0.47946329  1.00000000  1
  In  In1  1  0.77053671  0.27053671  0.50000000  1
