# generated using pymatgen
data_1216_Pb16Sr4
_symmetry_space_group_name_H-M   'I-43m'
_cell_length_a   9.78387040
_cell_length_b   9.78387040
_cell_length_c   9.78387040
_cell_angle_alpha   109.47122063
_cell_angle_beta   109.47122063
_cell_angle_gamma   109.47122063
_chemical_formula_structural   Pb16Sr4
_chemical_formula_sum   'Pb16 Sr4'
_cell_volume   720.95836188
loop_
 _symmetry_equiv_pos_site_id
 _symmetry_equiv_pos_as_xyz
  1  'x, y, z'
loop_
 _atom_type_symbol
  Pb
  Sr
loop_
 _atom_site_type_symbol
 _atom_site_label
 _atom_site_symmetry_multiplicity
 _atom_site_fract_x
 _atom_site_fract_y
 _atom_site_fract_z
 _atom_site_occupancy
  Pb  Pb0  1  0.67068146  0.67068146  0.67068146  1
  Pb  Pb1  1  0.32931854  0.00000000  0.00000000  1
  Pb  Pb2  1  0.00000000  0.32931854  0.00000000  1
  Pb  Pb3  1  0.00000000  0.00000000  0.32931854  1
  Pb  Pb4  1  0.65715879  0.65715879  0.00000000  1
  Pb  Pb5  1  0.34284121  0.34284121  0.00000000  1
  Pb  Pb6  1  0.65715879  0.00000000  0.65715879  1
  Pb  Pb7  1  0.34284121  0.00000000  0.34284121  1
  Pb  Pb8  1  1.00000000  0.65715879  0.65715879  1
  Pb  Pb9  1  0.00000000  0.34284121  0.34284121  1
  Pb  Pb10  1  0.25004673  0.75004673  0.50000000  1
  Pb  Pb11  1  0.74995327  0.24995327  0.50000000  1
  Pb  Pb12  1  0.75004673  0.50000000  0.25004673  1
  Pb  Pb13  1  0.24995327  0.50000000  0.74995327  1
  Pb  Pb14  1  0.50000000  0.25004673  0.75004673  1
  Pb  Pb15  1  0.50000000  0.74995327  0.24995327  1
  Sr  Sr0  1  0.33498519  0.33498519  0.33498519  1
  Sr  Sr1  1  0.66501481  0.00000000  0.00000000  1
  Sr  Sr2  1  0.00000000  0.66501481  0.00000000  1
  Sr  Sr3  1  0.00000000  0.00000000  0.66501481  1
