# generated using pymatgen
data_1224_Na3Pt
_symmetry_space_group_name_H-M   'I4/mmm'
_cell_length_a   5.23200461
_cell_length_b   5.23200461
_cell_length_c   5.23200461
_cell_angle_alpha   126.91067538
_cell_angle_beta   126.91067538
_cell_angle_gamma   78.39646107
_chemical_formula_structural   Na3Pt
_chemical_formula_sum   'Na3 Pt1'
_cell_volume   88.66606173
loop_
 _symmetry_equiv_pos_site_id
 _symmetry_equiv_pos_as_xyz
  1  'x, y, z'
loop_
 _atom_type_symbol
  Na
  Pt
loop_
 _atom_site_type_symbol
 _atom_site_label
 _atom_site_symmetry_multiplicity
 _atom_site_fract_x
 _atom_site_fract_y
 _atom_site_fract_z
 _atom_site_occupancy
  Na  Na0  1  0.00000000  0.00000000  0.00000000  1
  Na  Na1  1  0.50000000  0.50000000  0.00000000  1
  Na  Na2  1  0.75000000  0.25000000  0.50000000  1
  Pt  Pt0  1  0.25000000  0.75000000  0.50000000  1
