# generated using pymatgen
data_1227_Mn2W6
_symmetry_space_group_name_H-M   'Pm -3 n'
_cell_length_a   4.94151865
_cell_length_b   4.94151865
_cell_length_c   4.94151865
_cell_angle_alpha   90.00000000
_cell_angle_beta   90.00000000
_cell_angle_gamma   90.00000000
_chemical_formula_structural   Mn2W6
_chemical_formula_sum   'Mn2 W6'
_cell_volume   120.66499976
loop_
 _symmetry_equiv_pos_site_id
 _symmetry_equiv_pos_as_xyz
  1  'x, y, z'
loop_
 _atom_type_symbol
  Mn
  W
loop_
 _atom_site_type_symbol
 _atom_site_label
 _atom_site_symmetry_multiplicity
 _atom_site_fract_x
 _atom_site_fract_y
 _atom_site_fract_z
 _atom_site_occupancy
  Mn  Mn0  1  0.00000000  0.00000000  0.00000000  1
  Mn  Mn1  1  0.50000000  0.50000000  0.50000000  1
  W  W0  1  0.00000000  0.25000000  0.50000000  1
  W  W1  1  0.00000000  0.75000000  0.50000000  1
  W  W2  1  0.25000000  0.50000000  0.00000000  1
  W  W3  1  0.50000000  0.00000000  0.25000000  1
  W  W4  1  0.50000000  0.00000000  0.75000000  1
  W  W5  1  0.75000000  0.50000000  0.00000000  1
