# generated using pymatgen
data_1228_Mn2V2
_symmetry_space_group_name_H-M   'P4/nmm'
_cell_length_a   2.62389724
_cell_length_b   2.62389724
_cell_length_c   7.16231581
_cell_angle_alpha   90.00000000
_cell_angle_beta   90.00000000
_cell_angle_gamma   90.00000000
_chemical_formula_structural   Mn2V2
_chemical_formula_sum   'Mn2 V2'
_cell_volume   49.31137493
loop_
 _symmetry_equiv_pos_site_id
 _symmetry_equiv_pos_as_xyz
  1  'x, y, z'
loop_
 _atom_type_symbol
  Mn
  V
loop_
 _atom_site_type_symbol
 _atom_site_label
 _atom_site_symmetry_multiplicity
 _atom_site_fract_x
 _atom_site_fract_y
 _atom_site_fract_z
 _atom_site_occupancy
  Mn  Mn0  1  0.25000000  0.25000000  0.59382212  1
  Mn  Mn1  1  0.75000000  0.75000000  0.40617788  1
  V  V0  1  0.25000000  0.25000000  0.14553516  1
  V  V1  1  0.75000000  0.75000000  0.85446484  1
