# generated using pymatgen
data_1238_Cr2Ta2
_symmetry_space_group_name_H-M   'P4/nmm'
_cell_length_a   3.06459202
_cell_length_b   3.06459202
_cell_length_c   6.39584579
_cell_angle_alpha   90.00000000
_cell_angle_beta   90.00000000
_cell_angle_gamma   90.00000000
_chemical_formula_structural   Cr2Ta2
_chemical_formula_sum   'Cr2 Ta2'
_cell_volume   60.06802006
loop_
 _symmetry_equiv_pos_site_id
 _symmetry_equiv_pos_as_xyz
  1  'x, y, z'
loop_
 _atom_type_symbol
  Cr
  Ta
loop_
 _atom_site_type_symbol
 _atom_site_label
 _atom_site_symmetry_multiplicity
 _atom_site_fract_x
 _atom_site_fract_y
 _atom_site_fract_z
 _atom_site_occupancy
  Cr  Cr0  1  0.00000000  0.00000000  0.98204741  1
  Cr  Cr1  1  0.50000000  0.50000000  0.76795259  1
  Ta  Ta0  1  0.00000000  0.00000000  0.52080734  1
  Ta  Ta1  1  0.50000000  0.50000000  0.22919266  1
