# generated using pymatgen
data_1240_VW3
_symmetry_space_group_name_H-M   'P4/mmm'
_cell_length_a   3.13588266
_cell_length_b   4.44337932
_cell_length_c   4.44932730
_cell_angle_alpha   90.00000000
_cell_angle_beta   90.00000000
_cell_angle_gamma   90.00000000
_chemical_formula_structural   VW3
_chemical_formula_sum   'V1 W3'
_cell_volume   61.99655357
loop_
 _symmetry_equiv_pos_site_id
 _symmetry_equiv_pos_as_xyz
  1  'x, y, z'
loop_
 _atom_type_symbol
  V
  W
loop_
 _atom_site_type_symbol
 _atom_site_label
 _atom_site_symmetry_multiplicity
 _atom_site_fract_x
 _atom_site_fract_y
 _atom_site_fract_z
 _atom_site_occupancy
  V  V0  1  0.00000000  0.00000000  0.91611541  1
  W  W0  1  0.00000000  0.50000000  0.41693639  1
  W  W1  1  0.50000000  0.00000000  0.41665669  1
  W  W2  1  0.50000000  0.50000000  0.91695818  1
