# generated using pymatgen
data_1243_Ag2Ge6
_symmetry_space_group_name_H-M   'Cmcm'
_cell_length_a   5.96587542
_cell_length_b   5.96587542
_cell_length_c   5.14266726
_cell_angle_alpha   90.00000000
_cell_angle_beta   90.00000000
_cell_angle_gamma   121.39926121
_chemical_formula_structural   Ag2Ge6
_chemical_formula_sum   'Ag2 Ge6'
_cell_volume   156.23185011
loop_
 _symmetry_equiv_pos_site_id
 _symmetry_equiv_pos_as_xyz
  1  'x, y, z'
loop_
 _atom_type_symbol
  Ag
  Ge
loop_
 _atom_site_type_symbol
 _atom_site_label
 _atom_site_symmetry_multiplicity
 _atom_site_fract_x
 _atom_site_fract_y
 _atom_site_fract_z
 _atom_site_occupancy
  Ag  Ag0  1  0.62280447  0.37719553  0.75000000  1
  Ag  Ag1  1  0.37719553  0.62280447  0.25000000  1
  Ge  Ge0  1  0.17474735  0.82525265  0.75000000  1
  Ge  Ge1  1  0.82525265  0.17474735  0.25000000  1
  Ge  Ge2  1  0.66747743  0.87716556  0.75000000  1
  Ge  Ge3  1  0.33252257  0.12283444  0.25000000  1
  Ge  Ge4  1  0.87716556  0.66747743  0.25000000  1
  Ge  Ge5  1  0.12283444  0.33252257  0.75000000  1
