# generated using pymatgen
data_1245_P17Br12
_symmetry_space_group_name_H-M   'I-43m'
_cell_length_a   10.27603610
_cell_length_b   10.27603610
_cell_length_c   10.27603610
_cell_angle_alpha   109.47122063
_cell_angle_beta   109.47122063
_cell_angle_gamma   109.47122063
_chemical_formula_structural   P17Br12
_chemical_formula_sum   'Br12 P17'
_cell_volume   835.32402686
loop_
 _symmetry_equiv_pos_site_id
 _symmetry_equiv_pos_as_xyz
  1  'x, y, z'
loop_
 _atom_type_symbol
  Br
  P
loop_
 _atom_site_type_symbol
 _atom_site_label
 _atom_site_symmetry_multiplicity
 _atom_site_fract_x
 _atom_site_fract_y
 _atom_site_fract_z
 _atom_site_occupancy
  Br  Br0  1  0.20960191  0.71943597  0.20960191  1
  Br  Br1  1  0.49016594  0.28056403  0.49016594  1
  Br  Br2  1  0.79039809  0.00000000  0.50983406  1
  Br  Br3  1  0.50983406  0.00000000  0.79039809  1
  Br  Br4  1  0.79039809  0.50983406  0.00000000  1
  Br  Br5  1  0.50983406  0.79039809  0.00000000  1
  Br  Br6  1  0.49016594  0.49016594  0.28056403  1
  Br  Br7  1  0.20960191  0.20960191  0.71943597  1
  Br  Br8  1  1.00000000  0.50983406  0.79039809  1
  Br  Br9  1  1.00000000  0.79039809  0.50983406  1
  Br  Br10  1  0.71943597  0.20960191  0.20960191  1
  Br  Br11  1  0.28056403  0.49016594  0.49016594  1
  P  P0  1  0.75421619  0.12524845  0.75421619  1
  P  P1  1  0.62896773  0.87475155  0.62896773  1
  P  P2  1  0.24578381  0.00000000  0.37103227  1
  P  P3  1  0.37103227  0.00000000  0.24578381  1
  P  P4  1  0.24578381  0.37103227  0.00000000  1
  P  P5  1  0.37103227  0.24578381  0.00000000  1
  P  P6  1  0.62896773  0.62896773  0.87475155  1
  P  P7  1  0.75421619  0.75421619  0.12524845  1
  P  P8  1  0.00000000  0.37103227  0.24578381  1
  P  P9  1  0.00000000  0.24578381  0.37103227  1
  P  P10  1  0.12524845  0.75421619  0.75421619  1
  P  P11  1  0.87475155  0.62896773  0.62896773  1
  P  P12  1  1.00000000  0.22064787  0.00000000  1
  P  P13  1  0.77935213  0.77935213  0.77935213  1
  P  P14  1  1.00000000  0.00000000  0.22064787  1
  P  P15  1  0.22064787  0.00000000  0.00000000  1
  P  P16  1  0.00000000  0.00000000  0.00000000  1
