# generated using pymatgen
data_1255_Ga4W
_symmetry_space_group_name_H-M   'I4/mmm'
_cell_length_a   7.21154339
_cell_length_b   7.21154339
_cell_length_c   7.21154339
_cell_angle_alpha   151.45930504
_cell_angle_beta   151.45930504
_cell_angle_gamma   40.80342736
_chemical_formula_structural   Ga4W
_chemical_formula_sum   'Ga4 W1'
_cell_volume   85.43485096
loop_
 _symmetry_equiv_pos_site_id
 _symmetry_equiv_pos_as_xyz
  1  'x, y, z'
loop_
 _atom_type_symbol
  Ga
  W
loop_
 _atom_site_type_symbol
 _atom_site_label
 _atom_site_symmetry_multiplicity
 _atom_site_fract_x
 _atom_site_fract_y
 _atom_site_fract_z
 _atom_site_occupancy
  Ga  Ga0  1  0.25000000  0.75000000  0.50000000  1
  Ga  Ga1  1  0.75000000  0.25000000  0.50000000  1
  Ga  Ga2  1  0.59121099  0.59121099  0.00000000  1
  Ga  Ga3  1  0.40878901  0.40878901  0.00000000  1
  W  W0  1  0.00000000  0.00000000  0.00000000  1
