# generated using pymatgen
data_1256_Ag2Ge2
_symmetry_space_group_name_H-M   'Cmme'
_cell_length_a   2.90509113
_cell_length_b   2.90509113
_cell_length_c   9.45860100
_cell_angle_alpha   90.00000000
_cell_angle_beta   90.00000000
_cell_angle_gamma   110.16321934
_chemical_formula_structural   Ag2Ge2
_chemical_formula_sum   'Ag2 Ge2'
_cell_volume   74.93417828
loop_
 _symmetry_equiv_pos_site_id
 _symmetry_equiv_pos_as_xyz
  1  'x, y, z'
loop_
 _atom_type_symbol
  Ag
  Ge
loop_
 _atom_site_type_symbol
 _atom_site_label
 _atom_site_symmetry_multiplicity
 _atom_site_fract_x
 _atom_site_fract_y
 _atom_site_fract_z
 _atom_site_occupancy
  Ag  Ag0  1  0.00000000  0.00000000  0.99903474  1
  Ag  Ag1  1  0.50000000  0.50000000  0.75096526  1
  Ge  Ge0  1  0.00000000  0.00000000  0.50195143  1
  Ge  Ge1  1  0.50000000  0.50000000  0.24804857  1
