# generated using pymatgen
data_125_Nb4I16
_symmetry_space_group_name_H-M   'Cmc2_1'
_cell_length_a   8.02945926
_cell_length_b   8.02945926
_cell_length_c   14.87559482
_cell_angle_alpha   90.00000000
_cell_angle_beta   90.00000000
_cell_angle_gamma   122.00562866
_chemical_formula_structural   Nb4I16
_chemical_formula_sum   'I16 Nb4'
_cell_volume   813.28124945
loop_
 _symmetry_equiv_pos_site_id
 _symmetry_equiv_pos_as_xyz
  1  'x, y, z'
loop_
 _atom_type_symbol
  I
  Nb
loop_
 _atom_site_type_symbol
 _atom_site_label
 _atom_site_symmetry_multiplicity
 _atom_site_fract_x
 _atom_site_fract_y
 _atom_site_fract_z
 _atom_site_occupancy
  I  I0  1  0.74473433  0.25526461  0.03914060  1
  I  I1  1  0.26401416  0.73598477  0.05155565  1
  I  I2  1  0.48829612  0.51170281  0.19477625  1
  I  I3  1  0.00773082  0.99226812  0.20673944  1
  I  I4  1  0.01134739  0.47523733  0.27454091  1
  I  I5  1  0.52476161  0.98865154  0.27454091  1
  I  I6  1  0.25987385  0.22966465  0.47198186  1
  I  I7  1  0.77033558  0.74012637  0.47198186  1
  I  I8  1  0.25526461  0.74473433  0.53914040  1
  I  I9  1  0.73598477  0.26401416  0.55155546  1
  I  I10  1  0.51170281  0.48829612  0.69477674  1
  I  I11  1  0.99226812  0.00773082  0.70673925  1
  I  I12  1  0.47523733  0.01134739  0.77454071  1
  I  I13  1  0.98865154  0.52476161  0.77454071  1
  I  I14  1  0.22966465  0.25987385  0.97198167  1
  I  I15  1  0.74012637  0.77033558  0.97198167  1
  Nb  Nb0  1  0.08897097  0.33673453  0.12302125  1
  Nb  Nb1  1  0.66326570  0.91102925  0.12302125  1
  Nb  Nb2  1  0.33673453  0.08897097  0.62302106  1
  Nb  Nb3  1  0.91102925  0.66326570  0.62302106  1
