# generated using pymatgen
data_1262_Cr6Ta18
_symmetry_space_group_name_H-M   'Pmmn'
_cell_length_a   5.43246822
_cell_length_b   5.39146054
_cell_length_c   14.02159992
_cell_angle_alpha   90.00000000
_cell_angle_beta   90.00000000
_cell_angle_gamma   90.00000000
_chemical_formula_structural   Cr6Ta18
_chemical_formula_sum   'Cr6 Ta18'
_cell_volume   410.67777132
loop_
 _symmetry_equiv_pos_site_id
 _symmetry_equiv_pos_as_xyz
  1  'x, y, z'
loop_
 _atom_type_symbol
  Cr
  Ta
loop_
 _atom_site_type_symbol
 _atom_site_label
 _atom_site_symmetry_multiplicity
 _atom_site_fract_x
 _atom_site_fract_y
 _atom_site_fract_z
 _atom_site_occupancy
  Cr  Cr0  1  0.08801340  0.25000000  0.75000000  1
  Cr  Cr1  1  0.61330502  0.25000000  0.42719913  1
  Cr  Cr2  1  0.61330502  0.25000000  0.07280087  1
  Cr  Cr3  1  0.91198660  0.75000000  0.25000000  1
  Cr  Cr4  1  0.38669498  0.75000000  0.92719913  1
  Cr  Cr5  1  0.38669498  0.75000000  0.57280087  1
  Ta  Ta0  1  0.12894799  0.00048721  0.41767603  1
  Ta  Ta1  1  0.12894799  0.00048721  0.08232397  1
  Ta  Ta2  1  0.61225342  0.00107332  0.75000000  1
  Ta  Ta3  1  0.38774658  0.99892668  0.25000000  1
  Ta  Ta4  1  0.87105201  0.99951279  0.91767603  1
  Ta  Ta5  1  0.87105201  0.99951279  0.58232397  1
  Ta  Ta6  1  0.85798056  0.25000000  0.25000000  1
  Ta  Ta7  1  0.36010529  0.25000000  0.90999989  1
  Ta  Ta8  1  0.36010529  0.25000000  0.59000011  1
  Ta  Ta9  1  0.12894799  0.49951279  0.41767603  1
  Ta  Ta10  1  0.12894799  0.49951279  0.08232397  1
  Ta  Ta11  1  0.61225342  0.49892668  0.75000000  1
  Ta  Ta12  1  0.38774658  0.50107332  0.25000000  1
  Ta  Ta13  1  0.87105201  0.50048721  0.91767603  1
  Ta  Ta14  1  0.87105201  0.50048721  0.58232397  1
  Ta  Ta15  1  0.14201944  0.75000000  0.75000000  1
  Ta  Ta16  1  0.63989471  0.75000000  0.40999989  1
  Ta  Ta17  1  0.63989471  0.75000000  0.09000011  1
