# generated using pymatgen
data_1263_Ni2P4
_symmetry_space_group_name_H-M   'I4/mcm'
_cell_length_a   4.67263527
_cell_length_b   4.67263527
_cell_length_c   4.67263527
_cell_angle_alpha   107.91942094
_cell_angle_beta   107.91942094
_cell_angle_gamma   112.62149812
_chemical_formula_structural   Ni2P4
_chemical_formula_sum   'Ni2 P4'
_cell_volume   78.35596951
loop_
 _symmetry_equiv_pos_site_id
 _symmetry_equiv_pos_as_xyz
  1  'x, y, z'
loop_
 _atom_type_symbol
  Ni
  P
loop_
 _atom_site_type_symbol
 _atom_site_label
 _atom_site_symmetry_multiplicity
 _atom_site_fract_x
 _atom_site_fract_y
 _atom_site_fract_z
 _atom_site_occupancy
  Ni  Ni0  1  0.75000000  0.75000000  0.00000000  1
  Ni  Ni1  1  0.25000000  0.25000000  0.00000000  1
  P  P0  1  0.35237099  0.14762901  0.50000000  1
  P  P1  1  0.64762901  0.85237099  0.50000000  1
  P  P2  1  0.14762901  0.64762901  0.79525802  1
  P  P3  1  0.85237099  0.35237099  0.20474198  1
