# generated using pymatgen
data_1264_Sb4Ge2
_symmetry_space_group_name_H-M   'Cmcm'
_cell_length_a   6.64553381
_cell_length_b   6.64553381
_cell_length_c   5.95075421
_cell_angle_alpha   90.00000000
_cell_angle_beta   90.00000000
_cell_angle_gamma   143.00126666
_chemical_formula_structural   Sb4Ge2
_chemical_formula_sum   'Ge2 Sb4'
_cell_volume   158.15467700
loop_
 _symmetry_equiv_pos_site_id
 _symmetry_equiv_pos_as_xyz
  1  'x, y, z'
loop_
 _atom_type_symbol
  Ge
  Sb
loop_
 _atom_site_type_symbol
 _atom_site_label
 _atom_site_symmetry_multiplicity
 _atom_site_fract_x
 _atom_site_fract_y
 _atom_site_fract_z
 _atom_site_occupancy
  Ge  Ge0  1  0.04209640  0.95790360  0.00000000  1
  Ge  Ge1  1  0.40234805  0.59765195  0.50000000  1
  Sb  Sb0  1  0.38353886  0.61646114  0.00000000  1
  Sb  Sb1  1  0.70217625  0.29782375  0.00000000  1
  Sb  Sb2  1  0.74226819  0.25773181  0.50000000  1
  Sb  Sb3  1  0.06090558  0.93909442  0.50000000  1
