# generated using pymatgen
data_126_Ta4Ge2
_symmetry_space_group_name_H-M   'I4_1/amd'
_cell_length_a   10.53812384
_cell_length_b   10.53812384
_cell_length_c   10.53812384
_cell_angle_alpha   162.24674275
_cell_angle_beta   162.24674275
_cell_angle_gamma   25.20943406
_chemical_formula_structural   Ta4Ge2
_chemical_formula_sum   'Ge2 Ta4'
_cell_volume   108.77473841
loop_
 _symmetry_equiv_pos_site_id
 _symmetry_equiv_pos_as_xyz
  1  'x, y, z'
loop_
 _atom_type_symbol
  Ge
  Ta
loop_
 _atom_site_type_symbol
 _atom_site_label
 _atom_site_symmetry_multiplicity
 _atom_site_fract_x
 _atom_site_fract_y
 _atom_site_fract_z
 _atom_site_occupancy
  Ge  Ge0  1  0.00000000  0.00000000  0.00000000  1
  Ge  Ge1  1  0.25000000  0.75000000  0.50000000  1
  Ta  Ta0  1  0.57007098  0.57007098  0.00000000  1
  Ta  Ta1  1  0.67992902  0.17992902  0.50000000  1
  Ta  Ta2  1  0.42992902  0.42992902  0.00000000  1
  Ta  Ta3  1  0.82007098  0.32007098  0.50000000  1
