# generated using pymatgen
data_1270_Cu2Sn2
_symmetry_space_group_name_H-M   'P4/nmm'
_cell_length_a   3.17323569
_cell_length_b   3.17323569
_cell_length_c   7.72302227
_cell_angle_alpha   90.00000000
_cell_angle_beta   90.00000000
_cell_angle_gamma   90.00000000
_chemical_formula_structural   Cu2Sn2
_chemical_formula_sum   'Cu2 Sn2'
_cell_volume   77.76639155
loop_
 _symmetry_equiv_pos_site_id
 _symmetry_equiv_pos_as_xyz
  1  'x, y, z'
loop_
 _atom_type_symbol
  Cu
  Sn
loop_
 _atom_site_type_symbol
 _atom_site_label
 _atom_site_symmetry_multiplicity
 _atom_site_fract_x
 _atom_site_fract_y
 _atom_site_fract_z
 _atom_site_occupancy
  Cu  Cu0  1  0.00000000  0.00000000  0.04765502  1
  Cu  Cu1  1  0.50000000  0.50000000  0.20234498  1
  Sn  Sn0  1  0.00000000  0.00000000  0.43546933  1
  Sn  Sn1  1  0.50000000  0.50000000  0.81453067  1
