# generated using pymatgen
data_127_Ge4As2
_symmetry_space_group_name_H-M   'Pnnm'
_cell_length_a   3.97023463
_cell_length_b   5.27932991
_cell_length_c   6.47524872
_cell_angle_alpha   90.00000000
_cell_angle_beta   90.00000000
_cell_angle_gamma   90.00000000
_chemical_formula_structural   Ge4As2
_chemical_formula_sum   'As2 Ge4'
_cell_volume   135.72236856
loop_
 _symmetry_equiv_pos_site_id
 _symmetry_equiv_pos_as_xyz
  1  'x, y, z'
loop_
 _atom_type_symbol
  As
  Ge
loop_
 _atom_site_type_symbol
 _atom_site_label
 _atom_site_symmetry_multiplicity
 _atom_site_fract_x
 _atom_site_fract_y
 _atom_site_fract_z
 _atom_site_occupancy
  As  As0  1  0.00000000  0.00000000  0.00000000  1
  As  As1  1  0.50000000  0.50000000  0.50000000  1
  Ge  Ge0  1  0.00000000  0.19607784  0.62287008  1
  Ge  Ge1  1  0.00000000  0.80392216  0.37712992  1
  Ge  Ge2  1  0.50000000  0.69607784  0.87712992  1
  Ge  Ge3  1  0.50000000  0.30392216  0.12287008  1
