# generated using pymatgen
data_1280_Fe17Pd12
_symmetry_space_group_name_H-M   'I-43m'
_cell_length_a   7.89820344
_cell_length_b   7.89820344
_cell_length_c   7.89820344
_cell_angle_alpha   109.47122063
_cell_angle_beta   109.47122063
_cell_angle_gamma   109.47122063
_chemical_formula_structural   Fe17Pd12
_chemical_formula_sum   'Fe17 Pd12'
_cell_volume   379.28271980
loop_
 _symmetry_equiv_pos_site_id
 _symmetry_equiv_pos_as_xyz
  1  'x, y, z'
loop_
 _atom_type_symbol
  Fe
  Pd
loop_
 _atom_site_type_symbol
 _atom_site_label
 _atom_site_symmetry_multiplicity
 _atom_site_fract_x
 _atom_site_fract_y
 _atom_site_fract_z
 _atom_site_occupancy
  Fe  Fe0  1  0.68868710  0.26795468  0.68868710  1
  Fe  Fe1  1  0.42073241  0.73204532  0.42073241  1
  Fe  Fe2  1  0.31131290  0.00000000  0.57926759  1
  Fe  Fe3  1  0.57926759  0.00000000  0.31131290  1
  Fe  Fe4  1  0.31131290  0.57926759  0.00000000  1
  Fe  Fe5  1  0.57926759  0.31131290  0.00000000  1
  Fe  Fe6  1  0.42073241  0.42073241  0.73204532  1
  Fe  Fe7  1  0.68868710  0.68868710  0.26795468  1
  Fe  Fe8  1  1.00000000  0.57926759  0.31131290  1
  Fe  Fe9  1  1.00000000  0.31131290  0.57926759  1
  Fe  Fe10  1  0.26795468  0.68868710  0.68868710  1
  Fe  Fe11  1  0.73204532  0.42073241  0.42073241  1
  Fe  Fe12  1  1.00000000  0.37836267  0.00000000  1
  Fe  Fe13  1  0.62163733  0.62163733  0.62163733  1
  Fe  Fe14  1  1.00000000  1.00000000  0.37836267  1
  Fe  Fe15  1  0.37836267  0.00000000  0.00000000  1
  Fe  Fe16  1  0.00000000  0.00000000  0.00000000  1
  Pd  Pd0  1  0.19698579  0.80652790  0.19698579  1
  Pd  Pd1  1  0.39045790  0.19347210  0.39045790  1
  Pd  Pd2  1  0.80301421  0.00000000  0.60954210  1
  Pd  Pd3  1  0.60954210  0.00000000  0.80301421  1
  Pd  Pd4  1  0.80301421  0.60954210  0.00000000  1
  Pd  Pd5  1  0.60954210  0.80301421  0.00000000  1
  Pd  Pd6  1  0.39045790  0.39045790  0.19347210  1
  Pd  Pd7  1  0.19698579  0.19698579  0.80652790  1
  Pd  Pd8  1  1.00000000  0.60954210  0.80301421  1
  Pd  Pd9  1  1.00000000  0.80301421  0.60954210  1
  Pd  Pd10  1  0.80652790  0.19698579  0.19698579  1
  Pd  Pd11  1  0.19347210  0.39045790  0.39045790  1
