# generated using pymatgen
data_1282_Ga8Pt16
_symmetry_space_group_name_H-M   'Fd -3 m'
_cell_length_a   8.10638287
_cell_length_b   8.10638287
_cell_length_c   8.10638287
_cell_angle_alpha   60.00000000
_cell_angle_beta   60.00000000
_cell_angle_gamma   60.00000000
_chemical_formula_structural   Ga8Pt16
_chemical_formula_sum   'Ga8 Pt16'
_cell_volume   376.67460221
loop_
 _symmetry_equiv_pos_site_id
 _symmetry_equiv_pos_as_xyz
  1  'x, y, z'
loop_
 _atom_type_symbol
  Ga
  Pt
loop_
 _atom_site_type_symbol
 _atom_site_label
 _atom_site_symmetry_multiplicity
 _atom_site_fract_x
 _atom_site_fract_y
 _atom_site_fract_z
 _atom_site_occupancy
  Ga  Ga0  1  0.72066500  0.83800499  0.72066500  1
  Ga  Ga1  1  0.33800499  0.22066500  0.72066500  1
  Ga  Ga2  1  0.72066500  0.22066500  0.33800499  1
  Ga  Ga3  1  0.72066500  0.22066500  0.72066500  1
  Ga  Ga4  1  0.27933500  0.16199501  0.27933500  1
  Ga  Ga5  1  0.66199501  0.77933500  0.27933500  1
  Ga  Ga6  1  0.27933500  0.77933500  0.66199501  1
  Ga  Ga7  1  0.27933500  0.77933500  0.27933500  1
  Pt  Pt0  1  0.50000000  0.00000000  0.50000000  1
  Pt  Pt1  1  0.50000000  0.00000000  0.00000000  1
  Pt  Pt2  1  0.00000000  0.00000000  0.50000000  1
  Pt  Pt3  1  0.50000000  0.50000000  0.50000000  1
  Pt  Pt4  1  0.30994712  0.80994712  0.94005288  1
  Pt  Pt5  1  0.94005288  0.80994712  0.30994712  1
  Pt  Pt6  1  0.94005288  0.80994712  0.94005288  1
  Pt  Pt7  1  0.30994712  0.44005288  0.30994712  1
  Pt  Pt8  1  0.30994712  0.44005288  0.94005288  1
  Pt  Pt9  1  0.94005288  0.44005288  0.30994712  1
  Pt  Pt10  1  0.69005288  0.19005288  0.05994712  1
  Pt  Pt11  1  0.05994712  0.19005288  0.69005288  1
  Pt  Pt12  1  0.05994712  0.19005288  0.05994712  1
  Pt  Pt13  1  0.69005288  0.55994712  0.69005288  1
  Pt  Pt14  1  0.69005288  0.55994712  0.05994712  1
  Pt  Pt15  1  0.05994712  0.55994712  0.69005288  1
