# generated using pymatgen
data_1285_Ga4As2
_symmetry_space_group_name_H-M   'I4/mcm'
_cell_length_a   5.49850359
_cell_length_b   5.49850359
_cell_length_c   5.49850359
_cell_angle_alpha   104.76966361
_cell_angle_beta   104.76966361
_cell_angle_gamma   119.34928180
_chemical_formula_structural   Ga4As2
_chemical_formula_sum   'As2 Ga4'
_cell_volume   125.07546073
loop_
 _symmetry_equiv_pos_site_id
 _symmetry_equiv_pos_as_xyz
  1  'x, y, z'
loop_
 _atom_type_symbol
  As
  Ga
loop_
 _atom_site_type_symbol
 _atom_site_label
 _atom_site_symmetry_multiplicity
 _atom_site_fract_x
 _atom_site_fract_y
 _atom_site_fract_z
 _atom_site_occupancy
  As  As0  1  0.75000000  0.75000000  0.00000000  1
  As  As1  1  0.25000000  0.25000000  0.00000000  1
  Ga  Ga0  1  0.34404223  0.15595777  0.50000000  1
  Ga  Ga1  1  0.65595777  0.84404223  0.50000000  1
  Ga  Ga2  1  0.15595777  0.65595777  0.81191554  1
  Ga  Ga3  1  0.84404223  0.34404223  0.18808446  1
