# generated using pymatgen
data_1290_Ag2Br2
_symmetry_space_group_name_H-M   'P2_1/m'
_cell_length_a   4.00394651
_cell_length_b   4.11180330
_cell_length_c   5.75064590
_cell_angle_alpha   90.00000000
_cell_angle_beta   96.47733629
_cell_angle_gamma   90.00000000
_chemical_formula_structural   Ag2Br2
_chemical_formula_sum   'Ag2 Br2'
_cell_volume   94.07106133
loop_
 _symmetry_equiv_pos_site_id
 _symmetry_equiv_pos_as_xyz
  1  'x, y, z'
loop_
 _atom_type_symbol
  Ag
  Br
loop_
 _atom_site_type_symbol
 _atom_site_label
 _atom_site_symmetry_multiplicity
 _atom_site_fract_x
 _atom_site_fract_y
 _atom_site_fract_z
 _atom_site_occupancy
  Ag  Ag0  1  0.18011346  0.24999943  0.20480140  1
  Ag  Ag1  1  0.81988627  0.75000074  0.79519988  1
  Br  Br0  1  0.70296355  0.75000074  0.27129808  1
  Br  Br1  1  0.29703617  0.24999943  0.72870319  1
