# generated using pymatgen
data_1291_Al5Sb
_symmetry_space_group_name_H-M   'Cmmm'
_cell_length_a   6.70848573
_cell_length_b   6.70848573
_cell_length_c   4.13470210
_cell_angle_alpha   90.00000000
_cell_angle_beta   90.00000000
_cell_angle_gamma   143.03494354
_chemical_formula_structural   Al5Sb
_chemical_formula_sum   'Al5 Sb1'
_cell_volume   111.89341695
loop_
 _symmetry_equiv_pos_site_id
 _symmetry_equiv_pos_as_xyz
  1  'x, y, z'
loop_
 _atom_type_symbol
  Al
  Sb
loop_
 _atom_site_type_symbol
 _atom_site_label
 _atom_site_symmetry_multiplicity
 _atom_site_fract_x
 _atom_site_fract_y
 _atom_site_fract_z
 _atom_site_occupancy
  Al  Al0  1  0.79585518  0.20414482  0.50000000  1
  Al  Al1  1  0.64697602  0.35302398  0.00000000  1
  Al  Al2  1  0.47204444  0.52795556  0.50000000  1
  Al  Al3  1  0.29756023  0.70243977  0.00000000  1
  Al  Al4  1  0.14856103  0.85143897  0.50000000  1
  Sb  Sb0  1  0.97233644  0.02766356  0.00000000  1
