# generated using pymatgen
data_1299_Cr2Na6
_symmetry_space_group_name_H-M   'Cmcm'
_cell_length_a   6.49019259
_cell_length_b   6.49019259
_cell_length_c   5.89313255
_cell_angle_alpha   90.00000000
_cell_angle_beta   90.00000000
_cell_angle_gamma   99.04596194
_chemical_formula_structural   Cr2Na6
_chemical_formula_sum   'Cr2 Na6'
_cell_volume   245.14666105
loop_
 _symmetry_equiv_pos_site_id
 _symmetry_equiv_pos_as_xyz
  1  'x, y, z'
loop_
 _atom_type_symbol
  Cr
  Na
loop_
 _atom_site_type_symbol
 _atom_site_label
 _atom_site_symmetry_multiplicity
 _atom_site_fract_x
 _atom_site_fract_y
 _atom_site_fract_z
 _atom_site_occupancy
  Cr  Cr0  1  0.50963233  0.50963233  0.75000000  1
  Cr  Cr1  1  0.49036767  0.49036767  0.25000000  1
  Na  Na0  1  0.12601963  0.12601963  0.25000000  1
  Na  Na1  1  0.87398037  0.87398037  0.75000000  1
  Na  Na2  1  0.99192702  0.60876113  0.25000000  1
  Na  Na3  1  0.00807298  0.39123887  0.75000000  1
  Na  Na4  1  0.60876113  0.99192702  0.25000000  1
  Na  Na5  1  0.39123887  0.00807298  0.75000000  1
