# generated using pymatgen
data_12_InSn5
_symmetry_space_group_name_H-M   'Cm'
_cell_length_a   6.56716359
_cell_length_b   6.56716359
_cell_length_c   8.04589356
_cell_angle_alpha   74.86789898
_cell_angle_beta   74.86789898
_cell_angle_gamma   29.66139440
_chemical_formula_structural   InSn5
_chemical_formula_sum   'In1 Sn5'
_cell_volume   165.34154940
loop_
 _symmetry_equiv_pos_site_id
 _symmetry_equiv_pos_as_xyz
  1  'x, y, z'
loop_
 _atom_type_symbol
  In
  Sn
loop_
 _atom_site_type_symbol
 _atom_site_label
 _atom_site_symmetry_multiplicity
 _atom_site_fract_x
 _atom_site_fract_y
 _atom_site_fract_z
 _atom_site_occupancy
  In  In0  1  0.99983469  0.99983469  0.99986194  1
  Sn  Sn0  1  0.33256270  0.33256270  0.33505987  1
  Sn  Sn1  1  0.66787164  0.66787164  0.66458525  1
  Sn  Sn2  1  0.61145404  0.61145404  0.27841434  1
  Sn  Sn3  1  0.94415331  0.94415331  0.61096659  1
  Sn  Sn4  1  0.27745695  0.27745695  0.94444535  1
