# generated using pymatgen
data_1307_Fe26Pd2
_symmetry_space_group_name_H-M   'Fm -3 c'
_cell_length_a   8.02386283
_cell_length_b   8.02386283
_cell_length_c   8.02386283
_cell_angle_alpha   60.00000000
_cell_angle_beta   60.00000000
_cell_angle_gamma   60.00000000
_chemical_formula_structural   Fe26Pd2
_chemical_formula_sum   'Fe26 Pd2'
_cell_volume   365.28807074
loop_
 _symmetry_equiv_pos_site_id
 _symmetry_equiv_pos_as_xyz
  1  'x, y, z'
loop_
 _atom_type_symbol
  Fe
  Pd
loop_
 _atom_site_type_symbol
 _atom_site_label
 _atom_site_symmetry_multiplicity
 _atom_site_fract_x
 _atom_site_fract_y
 _atom_site_fract_z
 _atom_site_occupancy
  Fe  Fe0  1  0.29875212  0.70124788  0.06255699  1
  Fe  Fe1  1  0.06255699  0.93744301  0.29875212  1
  Fe  Fe2  1  0.93744301  0.06255699  0.70124788  1
  Fe  Fe3  1  0.70124788  0.29875212  0.93744301  1
  Fe  Fe4  1  0.93744301  0.70124788  0.29875212  1
  Fe  Fe5  1  0.70124788  0.93744301  0.06255699  1
  Fe  Fe6  1  0.29875212  0.06255699  0.93744301  1
  Fe  Fe7  1  0.06255699  0.29875212  0.70124788  1
  Fe  Fe8  1  0.06255699  0.70124788  0.93744301  1
  Fe  Fe9  1  0.29875212  0.93744301  0.70124788  1
  Fe  Fe10  1  0.70124788  0.06255699  0.29875212  1
  Fe  Fe11  1  0.93744301  0.29875212  0.06255699  1
  Fe  Fe12  1  0.20124788  0.56255699  0.43744301  1
  Fe  Fe13  1  0.43744301  0.79875212  0.20124788  1
  Fe  Fe14  1  0.56255699  0.20124788  0.79875212  1
  Fe  Fe15  1  0.79875212  0.43744301  0.56255699  1
  Fe  Fe16  1  0.56255699  0.43744301  0.20124788  1
  Fe  Fe17  1  0.79875212  0.20124788  0.43744301  1
  Fe  Fe18  1  0.20124788  0.79875212  0.56255699  1
  Fe  Fe19  1  0.43744301  0.56255699  0.79875212  1
  Fe  Fe20  1  0.43744301  0.20124788  0.56255699  1
  Fe  Fe21  1  0.20124788  0.43744301  0.79875212  1
  Fe  Fe22  1  0.79875212  0.56255699  0.20124788  1
  Fe  Fe23  1  0.56255699  0.79875212  0.43744301  1
  Fe  Fe24  1  0.00000000  0.00000000  0.00000000  1
  Fe  Fe25  1  0.50000000  0.50000000  0.50000000  1
  Pd  Pd0  1  0.25000000  0.25000000  0.25000000  1
  Pd  Pd1  1  0.75000000  0.75000000  0.75000000  1
