# generated using pymatgen
data_1308_Ba2Sn4
_symmetry_space_group_name_H-M   'Imma'
_cell_length_a   6.94004207
_cell_length_b   6.94004207
_cell_length_c   8.04869093
_cell_angle_alpha   54.62294532
_cell_angle_beta   54.62294532
_cell_angle_gamma   43.22961006
_chemical_formula_structural   Ba2Sn4
_chemical_formula_sum   'Ba2 Sn4'
_cell_volume   207.74672289
loop_
 _symmetry_equiv_pos_site_id
 _symmetry_equiv_pos_as_xyz
  1  'x, y, z'
loop_
 _atom_type_symbol
  Ba
  Sn
loop_
 _atom_site_type_symbol
 _atom_site_label
 _atom_site_symmetry_multiplicity
 _atom_site_fract_x
 _atom_site_fract_y
 _atom_site_fract_z
 _atom_site_occupancy
  Ba  Ba0  1  0.69934011  0.69934011  0.66204435  1
  Ba  Ba1  1  0.57843767  0.57843767  0.28240009  1
  Sn  Sn0  1  0.97324272  0.97324272  0.07541732  1
  Sn  Sn1  1  0.30439968  0.30439968  0.24731510  1
  Sn  Sn2  1  0.97337809  0.97337809  0.69712935  1
  Sn  Sn3  1  0.30453506  0.30453506  0.86902713  1
