# generated using pymatgen
data_1309_Al2Cu
_symmetry_space_group_name_H-M   'Immm'
_cell_length_a   4.03179250
_cell_length_b   5.67975851
_cell_length_c   4.14707349
_cell_angle_alpha   90.00000000
_cell_angle_beta   90.00000000
_cell_angle_gamma   90.00000000
_chemical_formula_structural   Al2Cu
_chemical_formula_sum   'Al4 Cu2'
_cell_volume   94.96635628
loop_
 _symmetry_equiv_pos_site_id
 _symmetry_equiv_pos_as_xyz
  1  'x, y, z'
loop_
 _atom_type_symbol
  Al
  Cu
loop_
 _atom_site_type_symbol
 _atom_site_label
 _atom_site_symmetry_multiplicity
 _atom_site_fract_x
 _atom_site_fract_y
 _atom_site_fract_z
 _atom_site_occupancy
  Al  Al0  1  0.00000000  0.24546232  0.49669663  1
  Al  Al1  1  0.00000000  0.75453768  0.50330337  1
  Al  Al2  1  0.50000000  0.74546232  0.00330337  1
  Al  Al3  1  0.50000000  0.25453768  0.99669663  1
  Cu  Cu0  1  0.00000000  0.00000000  0.00000000  1
  Cu  Cu1  1  0.50000000  0.50000000  0.50000000  1
