# generated using pymatgen
data_1311_FeW
_symmetry_space_group_name_H-M   'P4/mmm'
_cell_length_a   7.07050709
_cell_length_b   3.85645696
_cell_length_c   3.88758199
_cell_angle_alpha   90.00000000
_cell_angle_beta   90.00000000
_cell_angle_gamma   90.00000000
_chemical_formula_structural   FeW
_chemical_formula_sum   'Fe4 W4'
_cell_volume   106.00311129
loop_
 _symmetry_equiv_pos_site_id
 _symmetry_equiv_pos_as_xyz
  1  'x, y, z'
loop_
 _atom_type_symbol
  Fe
  W
loop_
 _atom_site_type_symbol
 _atom_site_label
 _atom_site_symmetry_multiplicity
 _atom_site_fract_x
 _atom_site_fract_y
 _atom_site_fract_z
 _atom_site_occupancy
  Fe  Fe0  1  0.24963546  0.25000000  0.25168630  1
  Fe  Fe1  1  0.25036454  0.75000000  0.75168630  1
  Fe  Fe2  1  0.74963546  0.25000000  0.24831370  1
  Fe  Fe3  1  0.75036454  0.75000000  0.74831370  1
  W  W0  1  0.99985641  0.25000000  0.74970448  1
  W  W1  1  0.50014359  0.75000000  0.24970448  1
  W  W2  1  0.49985641  0.25000000  0.75029552  1
  W  W3  1  0.00014359  0.75000000  0.25029552  1
