# generated using pymatgen
data_1313_Sn4W
_symmetry_space_group_name_H-M   'I4/m'
_cell_length_a   5.44166278
_cell_length_b   5.44166278
_cell_length_c   5.44166278
_cell_angle_alpha   101.25889837
_cell_angle_beta   101.25889837
_cell_angle_gamma   127.55442213
_chemical_formula_structural   Sn4W
_chemical_formula_sum   'Sn4 W1'
_cell_volume   114.59803303
loop_
 _symmetry_equiv_pos_site_id
 _symmetry_equiv_pos_as_xyz
  1  'x, y, z'
loop_
 _atom_type_symbol
  Sn
  W
loop_
 _atom_site_type_symbol
 _atom_site_label
 _atom_site_symmetry_multiplicity
 _atom_site_fract_x
 _atom_site_fract_y
 _atom_site_fract_z
 _atom_site_occupancy
  Sn  Sn0  1  0.79682323  0.37844061  0.17526384  1
  Sn  Sn1  1  0.37844061  0.20317677  0.58161738  1
  Sn  Sn2  1  0.20317677  0.62155939  0.82473616  1
  Sn  Sn3  1  0.62155939  0.79682323  0.41838262  1
  W  W0  1  0.00000000  0.00000000  0.00000000  1
