# generated using pymatgen
data_1316_TaGe3
_symmetry_space_group_name_H-M   'Pmm2'
_cell_length_a   2.95100809
_cell_length_b   4.91596567
_cell_length_c   4.80590014
_cell_angle_alpha   90.00000000
_cell_angle_beta   90.00000000
_cell_angle_gamma   90.00000000
_chemical_formula_structural   TaGe3
_chemical_formula_sum   'Ge3 Ta1'
_cell_volume   69.71945507
loop_
 _symmetry_equiv_pos_site_id
 _symmetry_equiv_pos_as_xyz
  1  'x, y, z'
loop_
 _atom_type_symbol
  Ge
  Ta
loop_
 _atom_site_type_symbol
 _atom_site_label
 _atom_site_symmetry_multiplicity
 _atom_site_fract_x
 _atom_site_fract_y
 _atom_site_fract_z
 _atom_site_occupancy
  Ge  Ge0  1  0.00000000  0.00000000  0.00519006  1
  Ge  Ge1  1  0.50000000  0.00000000  0.49861322  1
  Ge  Ge2  1  0.50000000  0.50000000  0.83438825  1
  Ta  Ta0  1  0.00000000  0.50000000  0.32847513  1
