# generated using pymatgen
data_1364_Ca2In2
_symmetry_space_group_name_H-M   'P4/nmm'
_cell_length_a   5.33541675
_cell_length_b   5.33541675
_cell_length_c   5.62875837
_cell_angle_alpha   90.00000000
_cell_angle_beta   90.00000000
_cell_angle_gamma   90.00000000
_chemical_formula_structural   Ca2In2
_chemical_formula_sum   'Ca2 In2'
_cell_volume   160.23201770
loop_
 _symmetry_equiv_pos_site_id
 _symmetry_equiv_pos_as_xyz
  1  'x, y, z'
loop_
 _atom_type_symbol
  Ca
  In
loop_
 _atom_site_type_symbol
 _atom_site_label
 _atom_site_symmetry_multiplicity
 _atom_site_fract_x
 _atom_site_fract_y
 _atom_site_fract_z
 _atom_site_occupancy
  Ca  Ca0  1  0.25000000  0.75000000  0.00000000  1
  Ca  Ca1  1  0.75000000  0.25000000  0.00000000  1
  In  In0  1  0.25000000  0.25000000  0.52462310  1
  In  In1  1  0.75000000  0.75000000  0.47537690  1
