# generated using pymatgen
data_136_Cu6Pt4
_symmetry_space_group_name_H-M   'P1'
_cell_length_a   5.98674840
_cell_length_b   5.40751115
_cell_length_c   4.61145496
_cell_angle_alpha   72.64259096
_cell_angle_beta   83.43190045
_cell_angle_gamma   103.51323420
_chemical_formula_structural   Cu6Pt4
_chemical_formula_sum   'Cu6 Pt4'
_cell_volume   135.79227639
loop_
 _symmetry_equiv_pos_site_id
 _symmetry_equiv_pos_as_xyz
  1  'x, y, z'
loop_
 _atom_type_symbol
  Cu
  Pt
loop_
 _atom_site_type_symbol
 _atom_site_label
 _atom_site_symmetry_multiplicity
 _atom_site_fract_x
 _atom_site_fract_y
 _atom_site_fract_z
 _atom_site_occupancy
  Cu  Cu0  1  0.99685375  0.00520273  0.99806291  1
  Cu  Cu1  1  0.60576052  0.10563932  0.19747877  1
  Cu  Cu2  1  0.19674275  0.20067591  0.40121000  1
  Cu  Cu3  1  0.80046627  0.30088203  0.59851643  1
  Cu  Cu4  1  0.99432608  0.49168561  0.00358237  1
  Cu  Cu5  1  0.60600407  0.59654661  0.20130668  1
  Pt  Pt0  1  0.39961067  0.39422846  0.81019549  1
  Pt  Pt1  1  0.19219967  0.69254207  0.39631991  1
  Pt  Pt2  1  0.80492054  0.80878058  0.59526229  1
  Pt  Pt3  1  0.40311569  0.90381668  0.79806515  1
