# generated using pymatgen
data_1380_Fe4Pb8
_symmetry_space_group_name_H-M   'Pnma'
_cell_length_a   4.40373443
_cell_length_b   5.85468954
_cell_length_c   8.41952126
_cell_angle_alpha   90.00000000
_cell_angle_beta   90.00000000
_cell_angle_gamma   90.00000000
_chemical_formula_structural   Fe4Pb8
_chemical_formula_sum   'Fe4 Pb8'
_cell_volume   217.07628924
loop_
 _symmetry_equiv_pos_site_id
 _symmetry_equiv_pos_as_xyz
  1  'x, y, z'
loop_
 _atom_type_symbol
  Fe
  Pb
loop_
 _atom_site_type_symbol
 _atom_site_label
 _atom_site_symmetry_multiplicity
 _atom_site_fract_x
 _atom_site_fract_y
 _atom_site_fract_z
 _atom_site_occupancy
  Fe  Fe0  1  0.25000000  0.70208486  0.38837581  1
  Fe  Fe1  1  0.75000000  0.79791514  0.88837581  1
  Fe  Fe2  1  0.25000000  0.20208486  0.11162419  1
  Fe  Fe3  1  0.75000000  0.29791514  0.61162419  1
  Pb  Pb0  1  0.25000000  0.03875597  0.78578525  1
  Pb  Pb1  1  0.75000000  0.46124403  0.28578525  1
  Pb  Pb2  1  0.25000000  0.53875597  0.71421475  1
  Pb  Pb3  1  0.75000000  0.96124403  0.21421475  1
  Pb  Pb4  1  0.25000000  0.17504416  0.43725916  1
  Pb  Pb5  1  0.75000000  0.32495584  0.93725916  1
  Pb  Pb6  1  0.25000000  0.67504416  0.06274084  1
  Pb  Pb7  1  0.75000000  0.82495584  0.56274084  1
