# generated using pymatgen
data_1382_In2Mn4
_symmetry_space_group_name_H-M   'Pnnm'
_cell_length_a   4.01143332
_cell_length_b   5.40045154
_cell_length_c   6.54686841
_cell_angle_alpha   90.00000000
_cell_angle_beta   90.00000000
_cell_angle_gamma   90.00000000
_chemical_formula_structural   In2Mn4
_chemical_formula_sum   'In2 Mn4'
_cell_volume   141.82841933
loop_
 _symmetry_equiv_pos_site_id
 _symmetry_equiv_pos_as_xyz
  1  'x, y, z'
loop_
 _atom_type_symbol
  In
  Mn
loop_
 _atom_site_type_symbol
 _atom_site_label
 _atom_site_symmetry_multiplicity
 _atom_site_fract_x
 _atom_site_fract_y
 _atom_site_fract_z
 _atom_site_occupancy
  In  In0  1  0.00000000  0.00000000  0.00000000  1
  In  In1  1  0.50000000  0.50000000  0.50000000  1
  Mn  Mn0  1  0.00000000  0.20688057  0.62903540  1
  Mn  Mn1  1  0.00000000  0.79311943  0.37096460  1
  Mn  Mn2  1  0.50000000  0.70688057  0.87096460  1
  Mn  Mn3  1  0.50000000  0.29311943  0.12903540  1
