# generated using pymatgen
data_1383_CrPt3
_symmetry_space_group_name_H-M   'P4/mmm'
_cell_length_a   3.18144865
_cell_length_b   3.18144865
_cell_length_c   6.01402678
_cell_angle_alpha   90.00000000
_cell_angle_beta   90.00000000
_cell_angle_gamma   90.00000000
_chemical_formula_structural   CrPt3
_chemical_formula_sum   'Cr1 Pt3'
_cell_volume   60.87166675
loop_
 _symmetry_equiv_pos_site_id
 _symmetry_equiv_pos_as_xyz
  1  'x, y, z'
loop_
 _atom_type_symbol
  Cr
  Pt
loop_
 _atom_site_type_symbol
 _atom_site_label
 _atom_site_symmetry_multiplicity
 _atom_site_fract_x
 _atom_site_fract_y
 _atom_site_fract_z
 _atom_site_occupancy
  Cr  Cr0  1  0.00000000  0.00000000  0.00000000  1
  Pt  Pt0  1  0.00000000  0.00000000  0.50000000  1
  Pt  Pt1  1  0.50000000  0.50000000  0.22565531  1
  Pt  Pt2  1  0.50000000  0.50000000  0.77434469  1
