# generated using pymatgen
data_138_Ge2As4
_symmetry_space_group_name_H-M   'Pnnm'
_cell_length_a   3.84672073
_cell_length_b   5.18575904
_cell_length_c   6.64723534
_cell_angle_alpha   90.00000000
_cell_angle_beta   90.00000000
_cell_angle_gamma   90.00000000
_chemical_formula_structural   Ge2As4
_chemical_formula_sum   'As4 Ge2'
_cell_volume   132.60015932
loop_
 _symmetry_equiv_pos_site_id
 _symmetry_equiv_pos_as_xyz
  1  'x, y, z'
loop_
 _atom_type_symbol
  As
  Ge
loop_
 _atom_site_type_symbol
 _atom_site_label
 _atom_site_symmetry_multiplicity
 _atom_site_fract_x
 _atom_site_fract_y
 _atom_site_fract_z
 _atom_site_occupancy
  As  As0  1  0.00000000  0.17977577  0.61466329  1
  As  As1  1  0.00000000  0.82022423  0.38533671  1
  As  As2  1  0.50000000  0.67977577  0.88533671  1
  As  As3  1  0.50000000  0.32022423  0.11466329  1
  Ge  Ge0  1  0.00000000  0.00000000  0.00000000  1
  Ge  Ge1  1  0.50000000  0.50000000  0.50000000  1
