# generated using pymatgen
data_1392_GaNb
_symmetry_space_group_name_H-M   'R -3 m'
_cell_length_a   4.89078154
_cell_length_b   4.89078154
_cell_length_c   4.89078125
_cell_angle_alpha   35.26803227
_cell_angle_beta   35.26803227
_cell_angle_gamma   35.26802860
_chemical_formula_structural   GaNb
_chemical_formula_sum   'Ga1 Nb1'
_cell_volume   34.84051589
loop_
 _symmetry_equiv_pos_site_id
 _symmetry_equiv_pos_as_xyz
  1  'x, y, z'
loop_
 _atom_type_symbol
  Ga
  Nb
loop_
 _atom_site_type_symbol
 _atom_site_label
 _atom_site_symmetry_multiplicity
 _atom_site_fract_x
 _atom_site_fract_y
 _atom_site_fract_z
 _atom_site_occupancy
  Ga  Ga0  1  0.00000000  0.00000000  0.00000000  1
  Nb  Nb0  1  0.50000000  0.50000000  0.50000000  1
