# generated using pymatgen
data_1399_Ni2Sb
_symmetry_space_group_name_H-M   'I4/mmm'
_cell_length_a   4.49488405
_cell_length_b   4.49488405
_cell_length_c   4.49488405
_cell_angle_alpha   136.24608785
_cell_angle_beta   136.23689360
_cell_angle_gamma   63.60720727
_chemical_formula_structural   Ni2Sb
_chemical_formula_sum   'Ni2 Sb1'
_cell_volume   42.87154145
loop_
 _symmetry_equiv_pos_site_id
 _symmetry_equiv_pos_as_xyz
  1  'x, y, z'
loop_
 _atom_type_symbol
  Ni
  Sb
loop_
 _atom_site_type_symbol
 _atom_site_label
 _atom_site_symmetry_multiplicity
 _atom_site_fract_x
 _atom_site_fract_y
 _atom_site_fract_z
 _atom_site_occupancy
  Ni  Ni0  1  0.66952189  0.66952189  0.00000000  1
  Ni  Ni1  1  0.33047811  0.33047811  0.00000000  1
  Sb  Sb0  1  0.00000000  0.00000000  0.00000000  1
