# generated using pymatgen
data_13_Ga2Sr
_symmetry_space_group_name_H-M   'P6/mmm'
_cell_length_a   4.35579000
_cell_length_b   4.35578886
_cell_length_c   4.74994900
_cell_angle_alpha   90.00000000
_cell_angle_beta   90.00000000
_cell_angle_gamma   120.00098141
_chemical_formula_structural   Ga2Sr
_chemical_formula_sum   'Ga2 Sr1'
_cell_volume   78.04571014
loop_
 _symmetry_equiv_pos_site_id
 _symmetry_equiv_pos_as_xyz
  1  'x, y, z'
loop_
 _atom_type_symbol
  Ga
  Sr
loop_
 _atom_site_type_symbol
 _atom_site_label
 _atom_site_symmetry_multiplicity
 _atom_site_fract_x
 _atom_site_fract_y
 _atom_site_fract_z
 _atom_site_occupancy
  Ga  Ga0  1  0.66670452  0.33339250  0.49999901  1
  Ga  Ga1  1  0.33339344  0.66670350  0.49999901  1
  Sr  Sr0  1  0.00000362  0.00000265  0.00000000  1
