# generated using pymatgen
data_1406_Cu2Br2
_symmetry_space_group_name_H-M   'Imma'
_cell_length_a   6.64406850
_cell_length_b   6.64406850
_cell_length_c   6.64406850
_cell_angle_alpha   148.51239566
_cell_angle_beta   147.85900164
_cell_angle_gamma   45.61352679
_chemical_formula_structural   Cu2Br2
_chemical_formula_sum   'Br2 Cu2'
_cell_volume   81.22926082
loop_
 _symmetry_equiv_pos_site_id
 _symmetry_equiv_pos_as_xyz
  1  'x, y, z'
loop_
 _atom_type_symbol
  Br
  Cu
loop_
 _atom_site_type_symbol
 _atom_site_label
 _atom_site_symmetry_multiplicity
 _atom_site_fract_x
 _atom_site_fract_y
 _atom_site_fract_z
 _atom_site_occupancy
  Br  Br0  1  0.00056227  0.00056227  0.00000000  1
  Br  Br1  1  0.74943773  0.24943773  0.50000000  1
  Cu  Cu0  1  0.49559241  0.49559241  0.00000000  1
  Cu  Cu1  1  0.25440759  0.75440759  0.50000000  1
