# generated using pymatgen
data_1407_BaAs
_symmetry_space_group_name_H-M   'P4/mmm'
_cell_length_a   6.05990880
_cell_length_b   3.47894155
_cell_length_c   6.98025908
_cell_angle_alpha   60.06858353
_cell_angle_beta   90.00000000
_cell_angle_gamma   90.00000000
_chemical_formula_structural   BaAs
_chemical_formula_sum   'As2 Ba2'
_cell_volume   127.53080997
loop_
 _symmetry_equiv_pos_site_id
 _symmetry_equiv_pos_as_xyz
  1  'x, y, z'
loop_
 _atom_type_symbol
  As
  Ba
loop_
 _atom_site_type_symbol
 _atom_site_label
 _atom_site_symmetry_multiplicity
 _atom_site_fract_x
 _atom_site_fract_y
 _atom_site_fract_z
 _atom_site_occupancy
  As  As0  1  0.75000000  0.24639596  0.24906038  1
  As  As1  1  0.25000000  0.75360404  0.75093962  1
  Ba  Ba0  1  0.75000000  0.24483071  0.74975204  1
  Ba  Ba1  1  0.25000000  0.75516929  0.25024796  1
