# generated using pymatgen
data_1408_Au4As2
_symmetry_space_group_name_H-M   'I4/mcm'
_cell_length_a   5.38649683
_cell_length_b   5.38649683
_cell_length_c   5.38649683
_cell_angle_alpha   104.66383717
_cell_angle_beta   104.66383717
_cell_angle_gamma   119.58440688
_chemical_formula_structural   Au4As2
_chemical_formula_sum   'As2 Au4'
_cell_volume   117.45482219
loop_
 _symmetry_equiv_pos_site_id
 _symmetry_equiv_pos_as_xyz
  1  'x, y, z'
loop_
 _atom_type_symbol
  As
  Au
loop_
 _atom_site_type_symbol
 _atom_site_label
 _atom_site_symmetry_multiplicity
 _atom_site_fract_x
 _atom_site_fract_y
 _atom_site_fract_z
 _atom_site_occupancy
  As  As0  1  0.75000000  0.75000000  0.00000000  1
  As  As1  1  0.25000000  0.25000000  0.00000000  1
  Au  Au0  1  0.35044440  0.14955560  0.50000000  1
  Au  Au1  1  0.64955560  0.85044440  0.50000000  1
  Au  Au2  1  0.14955560  0.64955560  0.79911121  1
  Au  Au3  1  0.85044440  0.35044440  0.20088879  1
