# generated using pymatgen
data_1410_K2Na
_symmetry_space_group_name_H-M   'I4/mmm'
_cell_length_a   8.18009851
_cell_length_b   8.18009851
_cell_length_c   8.18009851
_cell_angle_alpha   145.34944906
_cell_angle_beta   145.34944906
_cell_angle_gamma   49.81407021
_chemical_formula_structural   K2Na
_chemical_formula_sum   'K2 Na1'
_cell_volume   176.10715508
loop_
 _symmetry_equiv_pos_site_id
 _symmetry_equiv_pos_as_xyz
  1  'x, y, z'
loop_
 _atom_type_symbol
  K
  Na
loop_
 _atom_site_type_symbol
 _atom_site_label
 _atom_site_symmetry_multiplicity
 _atom_site_fract_x
 _atom_site_fract_y
 _atom_site_fract_z
 _atom_site_occupancy
  K  K0  1  0.98568731  0.98568731  0.00000000  1
  K  K1  1  0.68097935  0.68097935  0.00000000  1
  Na  Na0  1  0.33333333  0.33333333  0.00000000  1
