# generated using pymatgen
data_1411_Mo2W4
_symmetry_space_group_name_H-M   'I4/mcm'
_cell_length_a   4.93956014
_cell_length_b   5.16221601
_cell_length_c   5.16221601
_cell_angle_alpha   103.23226989
_cell_angle_beta   118.58317917
_cell_angle_gamma   61.41682083
_chemical_formula_structural   Mo2W4
_chemical_formula_sum   'Mo2 W4'
_cell_volume   101.50134477
loop_
 _symmetry_equiv_pos_site_id
 _symmetry_equiv_pos_as_xyz
  1  'x, y, z'
loop_
 _atom_type_symbol
  Mo
  W
loop_
 _atom_site_type_symbol
 _atom_site_label
 _atom_site_symmetry_multiplicity
 _atom_site_fract_x
 _atom_site_fract_y
 _atom_site_fract_z
 _atom_site_occupancy
  Mo  Mo0  1  0.25000000  0.00000000  0.00000000  1
  Mo  Mo1  1  0.75000000  0.00000000  0.00000000  1
  W  W0  1  0.14788839  0.20422322  0.50000000  1
  W  W1  1  0.35211161  0.50000000  0.20422322  1
  W  W2  1  0.64788839  0.50000000  0.79577678  1
  W  W3  1  0.85211161  0.79577678  0.50000000  1
