# generated using pymatgen
data_1412_FeK
_symmetry_space_group_name_H-M   'R -3 m'
_cell_length_a   6.00510530
_cell_length_b   6.00510530
_cell_length_c   6.00510517
_cell_angle_alpha   28.57903867
_cell_angle_beta   28.57903867
_cell_angle_gamma   28.57903802
_chemical_formula_structural   FeK
_chemical_formula_sum   'Fe1 K1'
_cell_volume   43.80495517
loop_
 _symmetry_equiv_pos_site_id
 _symmetry_equiv_pos_as_xyz
  1  'x, y, z'
loop_
 _atom_type_symbol
  Fe
  K
loop_
 _atom_site_type_symbol
 _atom_site_label
 _atom_site_symmetry_multiplicity
 _atom_site_fract_x
 _atom_site_fract_y
 _atom_site_fract_z
 _atom_site_occupancy
  Fe  Fe0  1  0.00000000  0.00000000  0.00000000  1
  K  K0  1  0.49999963  0.49999963  0.50000005  1
