# generated using pymatgen
data_1417_Mn2Sb
_symmetry_space_group_name_H-M   'I4/mmm'
_cell_length_a   4.77584715
_cell_length_b   4.77584715
_cell_length_c   4.77584715
_cell_angle_alpha   138.00758380
_cell_angle_beta   138.12055877
_cell_angle_gamma   60.80493207
_chemical_formula_structural   Mn2Sb
_chemical_formula_sum   'Mn2 Sb1'
_cell_volume   48.12353734
loop_
 _symmetry_equiv_pos_site_id
 _symmetry_equiv_pos_as_xyz
  1  'x, y, z'
loop_
 _atom_type_symbol
  Mn
  Sb
loop_
 _atom_site_type_symbol
 _atom_site_label
 _atom_site_symmetry_multiplicity
 _atom_site_fract_x
 _atom_site_fract_y
 _atom_site_fract_z
 _atom_site_occupancy
  Mn  Mn0  1  0.66818608  0.66818608  0.00000000  1
  Mn  Mn1  1  0.33181392  0.33181392  1.00000000  1
  Sb  Sb0  1  0.00000000  0.00000000  0.00000000  1
