# generated using pymatgen
data_1418_Ag4Al2
_symmetry_space_group_name_H-M   'I4/mcm'
_cell_length_a   5.20602311
_cell_length_b   5.20602311
_cell_length_c   5.20602311
_cell_angle_alpha   104.96695043
_cell_angle_beta   104.96695043
_cell_angle_gamma   118.91269410
_chemical_formula_structural   Ag4Al2
_chemical_formula_sum   'Ag4 Al2'
_cell_volume   106.37241323
loop_
 _symmetry_equiv_pos_site_id
 _symmetry_equiv_pos_as_xyz
  1  'x, y, z'
loop_
 _atom_type_symbol
  Ag
  Al
loop_
 _atom_site_type_symbol
 _atom_site_label
 _atom_site_symmetry_multiplicity
 _atom_site_fract_x
 _atom_site_fract_y
 _atom_site_fract_z
 _atom_site_occupancy
  Ag  Ag0  1  0.33739560  0.16260440  0.50000000  1
  Ag  Ag1  1  0.66260440  0.83739560  0.50000000  1
  Ag  Ag2  1  0.16260440  0.66260440  0.82520880  1
  Ag  Ag3  1  0.83739560  0.33739560  0.17479120  1
  Al  Al0  1  0.75000000  0.75000000  0.00000000  1
  Al  Al1  1  0.25000000  0.25000000  0.00000000  1
