# generated using pymatgen
data_141_CeBr
_symmetry_space_group_name_H-M   'F-43m'
_cell_length_a   4.80803056
_cell_length_b   4.80803056
_cell_length_c   4.80803056
_cell_angle_alpha   60.00000000
_cell_angle_beta   60.00000000
_cell_angle_gamma   60.00000000
_chemical_formula_structural   CeBr
_chemical_formula_sum   'Br1 Ce1'
_cell_volume   78.59350534
loop_
 _symmetry_equiv_pos_site_id
 _symmetry_equiv_pos_as_xyz
  1  'x, y, z'
loop_
 _atom_type_symbol
  Br
  Ce
loop_
 _atom_site_type_symbol
 _atom_site_label
 _atom_site_symmetry_multiplicity
 _atom_site_fract_x
 _atom_site_fract_y
 _atom_site_fract_z
 _atom_site_occupancy
  Br  Br0  1  0.00000000  0.00000000  0.00000000  1
  Ce  Ce0  1  0.25000000  0.25000000  0.25000000  1
