# generated using pymatgen
data_1420_CaCs
_symmetry_space_group_name_H-M   'R -3 m'
_cell_length_a   8.10653827
_cell_length_b   8.10653827
_cell_length_c   8.10653807
_cell_angle_alpha   30.91165509
_cell_angle_beta   30.91165509
_cell_angle_gamma   30.91166964
_chemical_formula_structural   CaCs
_chemical_formula_sum   'Ca1 Cs1'
_cell_volume   124.70226750
loop_
 _symmetry_equiv_pos_site_id
 _symmetry_equiv_pos_as_xyz
  1  'x, y, z'
loop_
 _atom_type_symbol
  Ca
  Cs
loop_
 _atom_site_type_symbol
 _atom_site_label
 _atom_site_symmetry_multiplicity
 _atom_site_fract_x
 _atom_site_fract_y
 _atom_site_fract_z
 _atom_site_occupancy
  Ca  Ca0  1  0.00000000  0.00000000  0.00000000  1
  Cs  Cs0  1  0.50000016  0.50000016  0.50000016  1
