# generated using pymatgen
data_1428_InV
_symmetry_space_group_name_H-M   'R -3 m'
_cell_length_a   4.96079558
_cell_length_b   4.96079558
_cell_length_c   4.96079541
_cell_angle_alpha   34.98597445
_cell_angle_beta   34.98597445
_cell_angle_gamma   34.98597491
_chemical_formula_structural   InV
_chemical_formula_sum   'In1 V1'
_cell_volume   35.83569813
loop_
 _symmetry_equiv_pos_site_id
 _symmetry_equiv_pos_as_xyz
  1  'x, y, z'
loop_
 _atom_type_symbol
  In
  V
loop_
 _atom_site_type_symbol
 _atom_site_label
 _atom_site_symmetry_multiplicity
 _atom_site_fract_x
 _atom_site_fract_y
 _atom_site_fract_z
 _atom_site_occupancy
  In  In0  1  0.00000000  0.00000000  0.00000000  1
  V  V0  1  0.50000000  0.50000000  0.50000000  1
