# generated using pymatgen
data_1429_Ga3Br
_symmetry_space_group_name_H-M   'Immm'
_cell_length_a   5.98911931
_cell_length_b   5.98911931
_cell_length_c   5.98911931
_cell_angle_alpha   146.63969064
_cell_angle_beta   130.11097920
_cell_angle_gamma   61.34730135
_chemical_formula_structural   Ga3Br
_chemical_formula_sum   'Br1 Ga3'
_cell_volume   89.46677357
loop_
 _symmetry_equiv_pos_site_id
 _symmetry_equiv_pos_as_xyz
  1  'x, y, z'
loop_
 _atom_type_symbol
  Br
  Ga
loop_
 _atom_site_type_symbol
 _atom_site_label
 _atom_site_symmetry_multiplicity
 _atom_site_fract_x
 _atom_site_fract_y
 _atom_site_fract_z
 _atom_site_occupancy
  Br  Br0  1  0.00000000  0.00000000  0.00000000  1
  Ga  Ga0  1  0.73706776  0.23706776  0.50000000  1
  Ga  Ga1  1  0.50000000  0.50000000  0.00000000  1
  Ga  Ga2  1  0.26293224  0.76293224  0.50000000  1
