# generated using pymatgen
data_1430_BaCu
_symmetry_space_group_name_H-M   'Immm'
_cell_length_a   4.56667786
_cell_length_b   4.76180641
_cell_length_c   6.59873357
_cell_angle_alpha   90.00000000
_cell_angle_beta   90.00000000
_cell_angle_gamma   90.00000000
_chemical_formula_structural   BaCu
_chemical_formula_sum   'Ba2 Cu2'
_cell_volume   143.49365765
loop_
 _symmetry_equiv_pos_site_id
 _symmetry_equiv_pos_as_xyz
  1  'x, y, z'
loop_
 _atom_type_symbol
  Ba
  Cu
loop_
 _atom_site_type_symbol
 _atom_site_label
 _atom_site_symmetry_multiplicity
 _atom_site_fract_x
 _atom_site_fract_y
 _atom_site_fract_z
 _atom_site_occupancy
  Ba  Ba0  1  0.00000000  0.00000000  0.12345181  1
  Ba  Ba1  1  0.50000000  0.50000000  0.62654819  1
  Cu  Cu0  1  0.00000000  0.00000000  0.61921927  1
  Cu  Cu1  1  0.50000000  0.50000000  0.13078073  1
