# generated using pymatgen
data_1434_Cr12P17
_symmetry_space_group_name_H-M   'I-43m'
_cell_length_a   7.78481889
_cell_length_b   7.78481889
_cell_length_c   7.78481889
_cell_angle_alpha   109.47122063
_cell_angle_beta   109.47122063
_cell_angle_gamma   109.47122063
_chemical_formula_structural   Cr12P17
_chemical_formula_sum   'Cr12 P17'
_cell_volume   363.18144218
loop_
 _symmetry_equiv_pos_site_id
 _symmetry_equiv_pos_as_xyz
  1  'x, y, z'
loop_
 _atom_type_symbol
  Cr
  P
loop_
 _atom_site_type_symbol
 _atom_site_label
 _atom_site_symmetry_multiplicity
 _atom_site_fract_x
 _atom_site_fract_y
 _atom_site_fract_z
 _atom_site_occupancy
  Cr  Cr0  1  0.21426162  0.81347670  0.21426162  1
  Cr  Cr1  1  0.40078492  0.18652330  0.40078492  1
  Cr  Cr2  1  0.78573838  0.00000000  0.59921508  1
  Cr  Cr3  1  0.59921508  0.00000000  0.78573838  1
  Cr  Cr4  1  0.78573838  0.59921508  0.00000000  1
  Cr  Cr5  1  0.59921508  0.78573838  0.00000000  1
  Cr  Cr6  1  0.40078492  0.40078492  0.18652330  1
  Cr  Cr7  1  0.21426162  0.21426162  0.81347670  1
  Cr  Cr8  1  0.00000000  0.59921508  0.78573838  1
  Cr  Cr9  1  1.00000000  0.78573838  0.59921508  1
  Cr  Cr10  1  0.81347670  0.21426162  0.21426162  1
  Cr  Cr11  1  0.18652330  0.40078492  0.40078492  1
  P  P0  1  0.70183409  0.28775028  0.70183409  1
  P  P1  1  0.41408381  0.71224972  0.41408381  1
  P  P2  1  0.29816591  0.00000000  0.58591619  1
  P  P3  1  0.58591619  0.00000000  0.29816591  1
  P  P4  1  0.29816591  0.58591619  0.00000000  1
  P  P5  1  0.58591619  0.29816591  0.00000000  1
  P  P6  1  0.41408381  0.41408381  0.71224972  1
  P  P7  1  0.70183409  0.70183409  0.28775028  1
  P  P8  1  1.00000000  0.58591619  0.29816591  1
  P  P9  1  1.00000000  0.29816591  0.58591619  1
  P  P10  1  0.28775028  0.70183409  0.70183409  1
  P  P11  1  0.71224972  0.41408381  0.41408381  1
  P  P12  1  0.00000000  0.27278367  0.00000000  1
  P  P13  1  0.72721633  0.72721633  0.72721633  1
  P  P14  1  0.00000000  0.00000000  0.27278367  1
  P  P15  1  0.27278367  0.00000000  0.00000000  1
  P  P16  1  0.00000000  0.00000000  0.00000000  1
