# generated using pymatgen
data_1435_Ni4Sb2
_symmetry_space_group_name_H-M   'I4_1/amd'
_cell_length_a   8.29528565
_cell_length_b   8.29528565
_cell_length_c   8.29528565
_cell_angle_alpha   156.06542264
_cell_angle_beta   156.00689487
_cell_angle_gamma   34.14664008
_chemical_formula_structural   Ni4Sb2
_chemical_formula_sum   'Ni4 Sb2'
_cell_volume   94.06905195
loop_
 _symmetry_equiv_pos_site_id
 _symmetry_equiv_pos_as_xyz
  1  'x, y, z'
loop_
 _atom_type_symbol
  Ni
  Sb
loop_
 _atom_site_type_symbol
 _atom_site_label
 _atom_site_symmetry_multiplicity
 _atom_site_fract_x
 _atom_site_fract_y
 _atom_site_fract_z
 _atom_site_occupancy
  Ni  Ni0  1  0.70083352  0.95083352  0.75000000  1
  Ni  Ni1  1  0.29916648  0.04916648  0.25000000  1
  Ni  Ni2  1  0.54932426  0.79932426  0.75000000  1
  Ni  Ni3  1  0.45067574  0.20067574  0.25000000  1
  Sb  Sb0  1  0.12471672  0.37471672  0.75000000  1
  Sb  Sb1  1  0.87528328  0.62528328  0.25000000  1
