# generated using pymatgen
data_1443_Pd4Ge2
_symmetry_space_group_name_H-M   'Imma'
_cell_length_a   3.10681009
_cell_length_b   3.31075101
_cell_length_c   18.67967362
_cell_angle_alpha   90.00000000
_cell_angle_beta   90.00000000
_cell_angle_gamma   90.00000000
_chemical_formula_structural   Pd4Ge2
_chemical_formula_sum   'Ge4 Pd8'
_cell_volume   192.13678123
loop_
 _symmetry_equiv_pos_site_id
 _symmetry_equiv_pos_as_xyz
  1  'x, y, z'
loop_
 _atom_type_symbol
  Ge
  Pd
loop_
 _atom_site_type_symbol
 _atom_site_label
 _atom_site_symmetry_multiplicity
 _atom_site_fract_x
 _atom_site_fract_y
 _atom_site_fract_z
 _atom_site_occupancy
  Ge  Ge0  1  0.00000000  0.25000000  0.62445707  1
  Ge  Ge1  1  0.00000000  0.75000000  0.37554293  1
  Ge  Ge2  1  0.50000000  0.25000000  0.87554293  1
  Ge  Ge3  1  0.50000000  0.75000000  0.12445707  1
  Pd  Pd0  1  0.00000000  0.25000000  0.05386832  1
  Pd  Pd1  1  0.00000000  0.25000000  0.19377661  1
  Pd  Pd2  1  0.00000000  0.75000000  0.80622339  1
  Pd  Pd3  1  0.00000000  0.75000000  0.94613168  1
  Pd  Pd4  1  0.50000000  0.25000000  0.30622339  1
  Pd  Pd5  1  0.50000000  0.25000000  0.44613168  1
  Pd  Pd6  1  0.50000000  0.75000000  0.55386832  1
  Pd  Pd7  1  0.50000000  0.75000000  0.69377661  1
