# generated using pymatgen
data_1447_Fe2Pb2
_symmetry_space_group_name_H-M   'P4/nmm'
_cell_length_a   3.20307919
_cell_length_b   3.20225798
_cell_length_c   8.27732905
_cell_angle_alpha   90.00000000
_cell_angle_beta   90.00000000
_cell_angle_gamma   90.00000000
_chemical_formula_structural   Fe2Pb2
_chemical_formula_sum   'Fe2 Pb2'
_cell_volume   84.90127506
loop_
 _symmetry_equiv_pos_site_id
 _symmetry_equiv_pos_as_xyz
  1  'x, y, z'
loop_
 _atom_type_symbol
  Fe
  Pb
loop_
 _atom_site_type_symbol
 _atom_site_label
 _atom_site_symmetry_multiplicity
 _atom_site_fract_x
 _atom_site_fract_y
 _atom_site_fract_z
 _atom_site_occupancy
  Fe  Fe0  1  0.00000000  0.00000000  0.93619555  1
  Fe  Fe1  1  0.50000000  0.50000000  0.81380445  1
  Pb  Pb0  1  0.00000000  0.00000000  0.57666718  1
  Pb  Pb1  1  0.50000000  0.50000000  0.17333282  1
