# generated using pymatgen
data_1448_PtV3
_symmetry_space_group_name_H-M   'Cmmm'
_cell_length_a   2.67193394
_cell_length_b   2.67193394
_cell_length_c   8.17738157
_cell_angle_alpha   90.00000000
_cell_angle_beta   90.00000000
_cell_angle_gamma   106.18315754
_chemical_formula_structural   PtV3
_chemical_formula_sum   'Pt1 V3'
_cell_volume   56.06693805
loop_
 _symmetry_equiv_pos_site_id
 _symmetry_equiv_pos_as_xyz
  1  'x, y, z'
loop_
 _atom_type_symbol
  Pt
  V
loop_
 _atom_site_type_symbol
 _atom_site_label
 _atom_site_symmetry_multiplicity
 _atom_site_fract_x
 _atom_site_fract_y
 _atom_site_fract_z
 _atom_site_occupancy
  Pt  Pt0  1  0.00000000  0.00000000  0.00000000  1
  V  V0  1  0.00000000  0.00000000  0.50000000  1
  V  V1  1  0.50000000  0.50000000  0.25875378  1
  V  V2  1  0.50000000  0.50000000  0.74124622  1
