# generated using pymatgen
data_144_CaRh4
_symmetry_space_group_name_H-M   'I4/m'
_cell_length_a   4.92804236
_cell_length_b   4.92804236
_cell_length_c   4.92804236
_cell_angle_alpha   99.30261232
_cell_angle_beta   99.30261232
_cell_angle_gamma   132.58648890
_chemical_formula_structural   CaRh4
_chemical_formula_sum   'Ca1 Rh4'
_cell_volume   80.67993459
loop_
 _symmetry_equiv_pos_site_id
 _symmetry_equiv_pos_as_xyz
  1  'x, y, z'
loop_
 _atom_type_symbol
  Ca
  Rh
loop_
 _atom_site_type_symbol
 _atom_site_label
 _atom_site_symmetry_multiplicity
 _atom_site_fract_x
 _atom_site_fract_y
 _atom_site_fract_z
 _atom_site_occupancy
  Ca  Ca0  1  0.00000000  0.00000000  0.00000000  1
  Rh  Rh0  1  0.81656665  0.40504907  0.22161572  1
  Rh  Rh1  1  0.40504907  0.18343335  0.58848242  1
  Rh  Rh2  1  0.18343335  0.59495093  0.77838428  1
  Rh  Rh3  1  0.59495093  0.81656665  0.41151758  1
