# generated using pymatgen
data_1454_Al2Sn6
_symmetry_space_group_name_H-M   'Pmmn'
_cell_length_a   5.43391185
_cell_length_b   5.72954019
_cell_length_c   6.49761925
_cell_angle_alpha   90.00000000
_cell_angle_beta   90.00000000
_cell_angle_gamma   90.00000000
_chemical_formula_structural   Al2Sn6
_chemical_formula_sum   'Al2 Sn6'
_cell_volume   202.29568433
loop_
 _symmetry_equiv_pos_site_id
 _symmetry_equiv_pos_as_xyz
  1  'x, y, z'
loop_
 _atom_type_symbol
  Al
  Sn
loop_
 _atom_site_type_symbol
 _atom_site_label
 _atom_site_symmetry_multiplicity
 _atom_site_fract_x
 _atom_site_fract_y
 _atom_site_fract_z
 _atom_site_occupancy
  Al  Al0  1  0.00000000  0.33493448  0.00000000  1
  Al  Al1  1  0.50000000  0.66506552  0.50000000  1
  Sn  Sn0  1  0.50000000  0.63072915  0.00000000  1
  Sn  Sn1  1  0.00000000  0.36927085  0.50000000  1
  Sn  Sn2  1  0.00000000  0.84460206  0.24408843  1
  Sn  Sn3  1  0.00000000  0.84460206  0.75591157  1
  Sn  Sn4  1  0.50000000  0.15539794  0.74408843  1
  Sn  Sn5  1  0.50000000  0.15539794  0.25591157  1
