# generated using pymatgen
data_1456_Ir4Na2
_symmetry_space_group_name_H-M   'Pnnm'
_cell_length_a   4.71554776
_cell_length_b   2.65063500
_cell_length_c   7.70383658
_cell_angle_alpha   90.00000000
_cell_angle_beta   90.00000000
_cell_angle_gamma   90.00000000
_chemical_formula_structural   Ir4Na2
_chemical_formula_sum   'Ir4 Na2'
_cell_volume   96.29176288
loop_
 _symmetry_equiv_pos_site_id
 _symmetry_equiv_pos_as_xyz
  1  'x, y, z'
loop_
 _atom_type_symbol
  Ir
  Na
loop_
 _atom_site_type_symbol
 _atom_site_label
 _atom_site_symmetry_multiplicity
 _atom_site_fract_x
 _atom_site_fract_y
 _atom_site_fract_z
 _atom_site_occupancy
  Ir  Ir0  1  0.00000000  0.23490739  0.64880256  1
  Ir  Ir1  1  0.00000000  0.76509261  0.35119744  1
  Ir  Ir2  1  0.50000000  0.73490739  0.85119744  1
  Ir  Ir3  1  0.50000000  0.26509261  0.14880256  1
  Na  Na0  1  0.00000000  0.00000000  0.00000000  1
  Na  Na1  1  0.50000000  0.50000000  0.50000000  1
