# generated using pymatgen
data_1465_BaAs
_symmetry_space_group_name_H-M   'P4/mmm'
_cell_length_a   3.47245611
_cell_length_b   6.04310670
_cell_length_c   6.05193804
_cell_angle_alpha   90.00000000
_cell_angle_beta   90.00000000
_cell_angle_gamma   90.00000000
_chemical_formula_structural   BaAs
_chemical_formula_sum   'As2 Ba2'
_cell_volume   126.99642649
loop_
 _symmetry_equiv_pos_site_id
 _symmetry_equiv_pos_as_xyz
  1  'x, y, z'
loop_
 _atom_type_symbol
  As
  Ba
loop_
 _atom_site_type_symbol
 _atom_site_label
 _atom_site_symmetry_multiplicity
 _atom_site_fract_x
 _atom_site_fract_y
 _atom_site_fract_z
 _atom_site_occupancy
  As  As0  1  0.00000000  0.00000000  0.91562770  1
  As  As1  1  0.00000000  0.50000000  0.41770563  1
  Ba  Ba0  1  0.50000000  0.00000000  0.41556932  1
  Ba  Ba1  1  0.50000000  0.50000000  0.91776401  1
