# generated using pymatgen
data_1480_Fe2Pb2
_symmetry_space_group_name_H-M   'Imma'
_cell_length_a   6.48396409
_cell_length_b   6.48396409
_cell_length_c   6.48396409
_cell_angle_alpha   149.85701490
_cell_angle_beta   142.70691522
_cell_angle_gamma   48.67559999
_chemical_formula_structural   Fe2Pb2
_chemical_formula_sum   'Fe2 Pb2'
_cell_volume   82.59593368
loop_
 _symmetry_equiv_pos_site_id
 _symmetry_equiv_pos_as_xyz
  1  'x, y, z'
loop_
 _atom_type_symbol
  Fe
  Pb
loop_
 _atom_site_type_symbol
 _atom_site_label
 _atom_site_symmetry_multiplicity
 _atom_site_fract_x
 _atom_site_fract_y
 _atom_site_fract_z
 _atom_site_occupancy
  Fe  Fe0  1  0.93326529  0.93326529  0.00000000  1
  Fe  Fe1  1  0.81673471  0.31673471  0.50000000  1
  Pb  Pb0  1  0.50550241  0.50550241  0.00000000  1
  Pb  Pb1  1  0.24449759  0.74449759  0.50000000  1
