# generated using pymatgen
data_1482_Cr8P4
_symmetry_space_group_name_H-M   'Pa -3'
_cell_length_a   5.40543258
_cell_length_b   5.40543258
_cell_length_c   5.40543258
_cell_angle_alpha   90.00000000
_cell_angle_beta   90.00000000
_cell_angle_gamma   90.00000000
_chemical_formula_structural   Cr8P4
_chemical_formula_sum   'Cr8 P4'
_cell_volume   157.93972037
loop_
 _symmetry_equiv_pos_site_id
 _symmetry_equiv_pos_as_xyz
  1  'x, y, z'
loop_
 _atom_type_symbol
  Cr
  P
loop_
 _atom_site_type_symbol
 _atom_site_label
 _atom_site_symmetry_multiplicity
 _atom_site_fract_x
 _atom_site_fract_y
 _atom_site_fract_z
 _atom_site_occupancy
  Cr  Cr0  1  0.61947591  0.61947591  0.38052409  1
  Cr  Cr1  1  0.38052409  0.38052409  0.61947591  1
  Cr  Cr2  1  0.11947591  0.88052409  0.61947591  1
  Cr  Cr3  1  0.88052409  0.11947591  0.38052409  1
  Cr  Cr4  1  0.38052409  0.11947591  0.11947591  1
  Cr  Cr5  1  0.61947591  0.88052409  0.88052409  1
  Cr  Cr6  1  0.88052409  0.38052409  0.88052409  1
  Cr  Cr7  1  0.11947591  0.61947591  0.11947591  1
  P  P0  1  0.00000000  0.00000000  0.00000000  1
  P  P1  1  0.50000000  0.50000000  0.00000000  1
  P  P2  1  0.50000000  0.00000000  0.50000000  1
  P  P3  1  0.00000000  0.50000000  0.50000000  1
