# generated using pymatgen
data_1483_Fe2Pb4
_symmetry_space_group_name_H-M   'I4/mcm'
_cell_length_a   5.22064941
_cell_length_b   5.22064941
_cell_length_c   5.22064941
_cell_angle_alpha   105.33997570
_cell_angle_beta   105.33997570
_cell_angle_gamma   118.09325751
_chemical_formula_structural   Fe2Pb4
_chemical_formula_sum   'Fe2 Pb4'
_cell_volume   107.64892334
loop_
 _symmetry_equiv_pos_site_id
 _symmetry_equiv_pos_as_xyz
  1  'x, y, z'
loop_
 _atom_type_symbol
  Fe
  Pb
loop_
 _atom_site_type_symbol
 _atom_site_label
 _atom_site_symmetry_multiplicity
 _atom_site_fract_x
 _atom_site_fract_y
 _atom_site_fract_z
 _atom_site_occupancy
  Fe  Fe0  1  0.75000000  0.75000000  0.00000000  1
  Fe  Fe1  1  0.25000000  0.25000000  0.00000000  1
  Pb  Pb0  1  0.33558599  0.16441401  0.50000000  1
  Pb  Pb1  1  0.66441401  0.83558599  0.50000000  1
  Pb  Pb2  1  0.16441401  0.66441401  0.82882801  1
  Pb  Pb3  1  0.83558599  0.33558599  0.17117199  1
