# generated using pymatgen
data_1484_Nb2P
_symmetry_space_group_name_H-M   'I4/mmm'
_cell_length_a   4.91615952
_cell_length_b   4.91615952
_cell_length_c   4.91615952
_cell_angle_alpha   140.36824518
_cell_angle_beta   140.36824518
_cell_angle_gamma   57.29459550
_chemical_formula_structural   Nb2P
_chemical_formula_sum   'Nb2 P1'
_cell_volume   47.93185459
loop_
 _symmetry_equiv_pos_site_id
 _symmetry_equiv_pos_as_xyz
  1  'x, y, z'
loop_
 _atom_type_symbol
  Nb
  P
loop_
 _atom_site_type_symbol
 _atom_site_label
 _atom_site_symmetry_multiplicity
 _atom_site_fract_x
 _atom_site_fract_y
 _atom_site_fract_z
 _atom_site_occupancy
  Nb  Nb0  1  0.99163342  0.99163342  0.00000000  1
  Nb  Nb1  1  0.67503324  0.67503324  0.00000000  1
  P  P0  1  0.33333333  0.33333333  0.00000000  1
