# generated using pymatgen
data_1485_BaCu5
_symmetry_space_group_name_H-M   'Cmmm'
_cell_length_a   5.75889610
_cell_length_b   5.75889610
_cell_length_c   4.54099058
_cell_angle_alpha   90.00000000
_cell_angle_beta   90.00000000
_cell_angle_gamma   128.41107138
_chemical_formula_structural   BaCu5
_chemical_formula_sum   'Ba1 Cu5'
_cell_volume   118.00727486
loop_
 _symmetry_equiv_pos_site_id
 _symmetry_equiv_pos_as_xyz
  1  'x, y, z'
loop_
 _atom_type_symbol
  Ba
  Cu
loop_
 _atom_site_type_symbol
 _atom_site_label
 _atom_site_symmetry_multiplicity
 _atom_site_fract_x
 _atom_site_fract_y
 _atom_site_fract_z
 _atom_site_occupancy
  Ba  Ba0  1  0.97227813  0.02772187  0.00000000  1
  Cu  Cu0  1  0.70564356  0.29435644  0.50000000  1
  Cu  Cu1  1  0.64668529  0.35331471  0.00000000  1
  Cu  Cu2  1  0.47136541  0.52863459  0.50000000  1
  Cu  Cu3  1  0.29765654  0.70234346  0.00000000  1
  Cu  Cu4  1  0.23970441  0.76029559  0.50000000  1
