# generated using pymatgen
data_1487_Fe8W4
_symmetry_space_group_name_H-M   'Pnma'
_cell_length_a   5.00008576
_cell_length_b   4.00926792
_cell_length_c   7.41235778
_cell_angle_alpha   90.00000000
_cell_angle_beta   90.00000000
_cell_angle_gamma   90.00000000
_chemical_formula_structural   Fe8W4
_chemical_formula_sum   'Fe8 W4'
_cell_volume   148.59318992
loop_
 _symmetry_equiv_pos_site_id
 _symmetry_equiv_pos_as_xyz
  1  'x, y, z'
loop_
 _atom_type_symbol
  Fe
  W
loop_
 _atom_site_type_symbol
 _atom_site_label
 _atom_site_symmetry_multiplicity
 _atom_site_fract_x
 _atom_site_fract_y
 _atom_site_fract_z
 _atom_site_occupancy
  Fe  Fe0  1  0.04628328  0.25000000  0.22676774  1
  Fe  Fe1  1  0.16653520  0.25000000  0.56206085  1
  Fe  Fe2  1  0.33346480  0.75000000  0.06206085  1
  Fe  Fe3  1  0.45371672  0.75000000  0.72676774  1
  Fe  Fe4  1  0.54628328  0.25000000  0.27323226  1
  Fe  Fe5  1  0.66653520  0.25000000  0.93793915  1
  Fe  Fe6  1  0.83346480  0.75000000  0.43793915  1
  Fe  Fe7  1  0.95371672  0.75000000  0.77323226  1
  W  W0  1  0.18069264  0.25000000  0.89496027  1
  W  W1  1  0.31930736  0.75000000  0.39496027  1
  W  W2  1  0.68069264  0.25000000  0.60503973  1
  W  W3  1  0.81930736  0.75000000  0.10503973  1
