# generated using pymatgen
data_1489_Ge2P2
_symmetry_space_group_name_H-M   'Cmcm'
_cell_length_a   6.17710048
_cell_length_b   6.17710048
_cell_length_c   3.61069383
_cell_angle_alpha   90.00000000
_cell_angle_beta   90.00000000
_cell_angle_gamma   145.99529985
_chemical_formula_structural   Ge2P2
_chemical_formula_sum   'Ge2 P2'
_cell_volume   77.05032258
loop_
 _symmetry_equiv_pos_site_id
 _symmetry_equiv_pos_as_xyz
  1  'x, y, z'
loop_
 _atom_type_symbol
  Ge
  P
loop_
 _atom_site_type_symbol
 _atom_site_label
 _atom_site_symmetry_multiplicity
 _atom_site_fract_x
 _atom_site_fract_y
 _atom_site_fract_z
 _atom_site_occupancy
  Ge  Ge0  1  0.83943640  0.16056360  0.75000000  1
  Ge  Ge1  1  0.16056360  0.83943640  0.25000000  1
  P  P0  1  0.63211681  0.36788319  0.75000000  1
  P  P1  1  0.36788319  0.63211681  0.25000000  1
