# generated using pymatgen
data_1490_PbSb3
_symmetry_space_group_name_H-M   'Immm'
_cell_length_a   6.35497173
_cell_length_b   6.35497173
_cell_length_c   6.35497173
_cell_angle_alpha   143.64316057
_cell_angle_beta   130.11180944
_cell_angle_gamma   63.28057423
_chemical_formula_structural   PbSb3
_chemical_formula_sum   'Pb1 Sb3'
_cell_volume   114.99376603
loop_
 _symmetry_equiv_pos_site_id
 _symmetry_equiv_pos_as_xyz
  1  'x, y, z'
loop_
 _atom_type_symbol
  Pb
  Sb
loop_
 _atom_site_type_symbol
 _atom_site_label
 _atom_site_symmetry_multiplicity
 _atom_site_fract_x
 _atom_site_fract_y
 _atom_site_fract_z
 _atom_site_occupancy
  Pb  Pb0  1  0.50000000  1.00000000  0.50000000  1
  Sb  Sb0  1  0.22305381  0.22305381  0.00000000  1
  Sb  Sb1  1  0.77694619  0.77694619  1.00000000  1
  Sb  Sb2  1  1.00000000  0.50000000  0.50000000  1
