# generated using pymatgen
data_1492_K6Sn2
_symmetry_space_group_name_H-M   'Cmcm'
_cell_length_a   8.20007408
_cell_length_b   8.20007408
_cell_length_c   6.47838518
_cell_angle_alpha   90.00000000
_cell_angle_beta   90.00000000
_cell_angle_gamma   121.13896693
_chemical_formula_structural   K6Sn2
_chemical_formula_sum   'K6 Sn2'
_cell_volume   372.84923435
loop_
 _symmetry_equiv_pos_site_id
 _symmetry_equiv_pos_as_xyz
  1  'x, y, z'
loop_
 _atom_type_symbol
  K
  Sn
loop_
 _atom_site_type_symbol
 _atom_site_label
 _atom_site_symmetry_multiplicity
 _atom_site_fract_x
 _atom_site_fract_y
 _atom_site_fract_z
 _atom_site_occupancy
  K  K0  1  0.18801140  0.81198860  0.75000000  1
  K  K1  1  0.81198860  0.18801140  0.25000000  1
  K  K2  1  0.64037859  0.81742888  0.75000000  1
  K  K3  1  0.35962141  0.18257112  0.25000000  1
  K  K4  1  0.81742888  0.64037859  0.25000000  1
  K  K5  1  0.18257112  0.35962141  0.75000000  1
  Sn  Sn0  1  0.66073539  0.33926461  0.75000000  1
  Sn  Sn1  1  0.33926461  0.66073539  0.25000000  1
