# generated using pymatgen
data_1493_InK2
_symmetry_space_group_name_H-M   'Immm'
_cell_length_a   7.25275356
_cell_length_b   7.25275356
_cell_length_c   7.25275356
_cell_angle_alpha   148.05084873
_cell_angle_beta   137.43043696
_cell_angle_gamma   54.19880362
_chemical_formula_structural   InK2
_chemical_formula_sum   'In1 K2'
_cell_volume   135.71925312
loop_
 _symmetry_equiv_pos_site_id
 _symmetry_equiv_pos_as_xyz
  1  'x, y, z'
loop_
 _atom_type_symbol
  In
  K
loop_
 _atom_site_type_symbol
 _atom_site_label
 _atom_site_symmetry_multiplicity
 _atom_site_fract_x
 _atom_site_fract_y
 _atom_site_fract_z
 _atom_site_occupancy
  In  In0  1  0.00000000  0.00000000  0.00000000  1
  K  K0  1  0.64811972  0.64811972  0.00000000  1
  K  K1  1  0.35188028  0.35188028  0.00000000  1
