# generated using pymatgen
data_1497_W5Sb24
_symmetry_space_group_name_H-M   'I-43m'
_cell_length_a   11.53879853
_cell_length_b   11.53879853
_cell_length_c   11.53879853
_cell_angle_alpha   109.47122063
_cell_angle_beta   109.47122063
_cell_angle_gamma   109.47122063
_chemical_formula_structural   W5Sb24
_chemical_formula_sum   'Sb24 W5'
_cell_volume   1182.65992660
loop_
 _symmetry_equiv_pos_site_id
 _symmetry_equiv_pos_as_xyz
  1  'x, y, z'
loop_
 _atom_type_symbol
  Sb
  W
loop_
 _atom_site_type_symbol
 _atom_site_label
 _atom_site_symmetry_multiplicity
 _atom_site_fract_x
 _atom_site_fract_y
 _atom_site_fract_z
 _atom_site_occupancy
  Sb  Sb0  1  0.15657735  0.30690290  0.00000000  1
  Sb  Sb1  1  0.30690290  0.15657735  0.00000000  1
  Sb  Sb2  1  0.84342265  0.84342265  0.15032555  1
  Sb  Sb3  1  0.69309710  0.69309710  0.84967445  1
  Sb  Sb4  1  0.84342265  0.15032555  0.84342265  1
  Sb  Sb5  1  0.69309710  0.84967445  0.69309710  1
  Sb  Sb6  1  0.30690290  0.00000000  0.15657735  1
  Sb  Sb7  1  0.15657735  0.00000000  0.30690290  1
  Sb  Sb8  1  0.00000000  0.30690290  0.15657735  1
  Sb  Sb9  1  0.00000000  0.15657735  0.30690290  1
  Sb  Sb10  1  0.84967445  0.69309710  0.69309710  1
  Sb  Sb11  1  0.15032555  0.84342265  0.84342265  1
  Sb  Sb12  1  0.84986334  0.50772390  0.00000000  1
  Sb  Sb13  1  0.50772390  0.84986334  0.00000000  1
  Sb  Sb14  1  0.15013666  0.15013666  0.65786056  1
  Sb  Sb15  1  0.49227610  0.49227610  0.34213944  1
  Sb  Sb16  1  0.15013666  0.65786056  0.15013666  1
  Sb  Sb17  1  0.49227610  0.34213944  0.49227610  1
  Sb  Sb18  1  0.50772390  0.00000000  0.84986334  1
  Sb  Sb19  1  0.84986334  0.00000000  0.50772390  1
  Sb  Sb20  1  1.00000000  0.50772390  0.84986334  1
  Sb  Sb21  1  1.00000000  0.84986334  0.50772390  1
  Sb  Sb22  1  0.34213944  0.49227610  0.49227610  1
  Sb  Sb23  1  0.65786056  0.15013666  0.15013666  1
  W  W0  1  0.00000000  0.76747557  0.00000000  1
  W  W1  1  0.76747557  0.00000000  0.00000000  1
  W  W2  1  0.00000000  0.00000000  0.76747557  1
  W  W3  1  0.23252443  0.23252443  0.23252443  1
  W  W4  1  0.00000000  0.00000000  0.00000000  1
