# generated using pymatgen
data_149_PdRh2
_symmetry_space_group_name_H-M   'I4/mmm'
_cell_length_a   2.74096390
_cell_length_b   2.74096390
_cell_length_c   6.12950395
_cell_angle_alpha   77.08015377
_cell_angle_beta   77.08015377
_cell_angle_gamma   90.00000000
_chemical_formula_structural   PdRh2
_chemical_formula_sum   'Pd1 Rh2'
_cell_volume   43.68751350
loop_
 _symmetry_equiv_pos_site_id
 _symmetry_equiv_pos_as_xyz
  1  'x, y, z'
loop_
 _atom_type_symbol
  Pd
  Rh
loop_
 _atom_site_type_symbol
 _atom_site_label
 _atom_site_symmetry_multiplicity
 _atom_site_fract_x
 _atom_site_fract_y
 _atom_site_fract_z
 _atom_site_occupancy
  Pd  Pd0  1  0.00000000  0.00000000  0.00000000  1
  Rh  Rh0  1  0.32851043  0.32851043  0.34297914  1
  Rh  Rh1  1  0.67148957  0.67148957  0.65702086  1
