# generated using pymatgen
data_1500_Ag2Al4
_symmetry_space_group_name_H-M   'I4/mcm'
_cell_length_a   5.21398375
_cell_length_b   5.21398375
_cell_length_c   5.21398375
_cell_angle_alpha   105.27509783
_cell_angle_beta   105.27509783
_cell_angle_gamma   118.23521830
_chemical_formula_structural   Ag2Al4
_chemical_formula_sum   'Ag2 Al4'
_cell_volume   107.17444534
loop_
 _symmetry_equiv_pos_site_id
 _symmetry_equiv_pos_as_xyz
  1  'x, y, z'
loop_
 _atom_type_symbol
  Ag
  Al
loop_
 _atom_site_type_symbol
 _atom_site_label
 _atom_site_symmetry_multiplicity
 _atom_site_fract_x
 _atom_site_fract_y
 _atom_site_fract_z
 _atom_site_occupancy
  Ag  Ag0  1  0.75000000  0.75000000  0.00000000  1
  Ag  Ag1  1  0.25000000  0.25000000  0.00000000  1
  Al  Al0  1  0.35052653  0.14947347  0.50000000  1
  Al  Al1  1  0.64947347  0.85052653  0.50000000  1
  Al  Al2  1  0.14947347  0.64947347  0.79894694  1
  Al  Al3  1  0.85052653  0.35052653  0.20105306  1
