# generated using pymatgen
data_1503_FeMo5
_symmetry_space_group_name_H-M   'F-43m'
_cell_length_a   5.14022386
_cell_length_b   5.14022386
_cell_length_c   5.14022386
_cell_angle_alpha   60.00000000
_cell_angle_beta   60.00000000
_cell_angle_gamma   60.00000000
_chemical_formula_structural   FeMo5
_chemical_formula_sum   'Fe1 Mo5'
_cell_volume   96.03534534
loop_
 _symmetry_equiv_pos_site_id
 _symmetry_equiv_pos_as_xyz
  1  'x, y, z'
loop_
 _atom_type_symbol
  Fe
  Mo
loop_
 _atom_site_type_symbol
 _atom_site_label
 _atom_site_symmetry_multiplicity
 _atom_site_fract_x
 _atom_site_fract_y
 _atom_site_fract_z
 _atom_site_occupancy
  Fe  Fe0  1  0.00000000  0.00000000  0.00000000  1
  Mo  Mo0  1  0.75000000  0.75000000  0.75000000  1
  Mo  Mo1  1  0.37545586  0.87363241  0.37545586  1
  Mo  Mo2  1  0.87363241  0.37545586  0.37545586  1
  Mo  Mo3  1  0.37545586  0.37545586  0.37545586  1
  Mo  Mo4  1  0.37545586  0.37545586  0.87363241  1
