# generated using pymatgen
data_1506_Ba2Pd2
_symmetry_space_group_name_H-M   'Cmcm'
_cell_length_a   6.36241103
_cell_length_b   6.36241103
_cell_length_c   12.84220359
_cell_angle_alpha   150.51089576
_cell_angle_beta   150.51089576
_cell_angle_gamma   41.03196337
_chemical_formula_structural   Ba2Pd2
_chemical_formula_sum   'Ba2 Pd2'
_cell_volume   125.95847841
loop_
 _symmetry_equiv_pos_site_id
 _symmetry_equiv_pos_as_xyz
  1  'x, y, z'
loop_
 _atom_type_symbol
  Ba
  Pd
loop_
 _atom_site_type_symbol
 _atom_site_label
 _atom_site_symmetry_multiplicity
 _atom_site_fract_x
 _atom_site_fract_y
 _atom_site_fract_z
 _atom_site_occupancy
  Ba  Ba0  1  0.89051424  0.89051424  0.62744921  1
  Ba  Ba1  1  0.10948576  0.10948576  0.12255079  1
  Pd  Pd0  1  0.17828203  0.17828203  0.62316052  1
  Pd  Pd1  1  0.82171797  0.82171797  0.12683948  1
