# generated using pymatgen
data_1508_Na2Pd2
_symmetry_space_group_name_H-M   'Imma'
_cell_length_a   5.94667670
_cell_length_b   5.94667670
_cell_length_c   5.94667670
_cell_angle_alpha   150.88321234
_cell_angle_beta   130.41878534
_cell_angle_gamma   58.53354777
_chemical_formula_structural   Na2Pd2
_chemical_formula_sum   'Na2 Pd2'
_cell_volume   77.34121071
loop_
 _symmetry_equiv_pos_site_id
 _symmetry_equiv_pos_as_xyz
  1  'x, y, z'
loop_
 _atom_type_symbol
  Na
  Pd
loop_
 _atom_site_type_symbol
 _atom_site_label
 _atom_site_symmetry_multiplicity
 _atom_site_fract_x
 _atom_site_fract_y
 _atom_site_fract_z
 _atom_site_occupancy
  Na  Na0  1  0.98484915  0.98484915  0.00000000  1
  Na  Na1  1  0.26515085  0.76515085  0.50000000  1
  Pd  Pd0  1  0.51591825  0.51591825  1.00000000  1
  Pd  Pd1  1  0.73408175  0.23408175  0.50000000  1
