# generated using pymatgen
data_1511_V2W
_symmetry_space_group_name_H-M   'Immm'
_cell_length_a   4.51979896
_cell_length_b   7.58998106
_cell_length_c   2.56741475
_cell_angle_alpha   90.00000000
_cell_angle_beta   90.00000000
_cell_angle_gamma   90.00000000
_chemical_formula_structural   V2W
_chemical_formula_sum   'V4 W2'
_cell_volume   88.07564696
loop_
 _symmetry_equiv_pos_site_id
 _symmetry_equiv_pos_as_xyz
  1  'x, y, z'
loop_
 _atom_type_symbol
  V
  W
loop_
 _atom_site_type_symbol
 _atom_site_label
 _atom_site_symmetry_multiplicity
 _atom_site_fract_x
 _atom_site_fract_y
 _atom_site_fract_z
 _atom_site_occupancy
  V  V0  1  0.00050624  0.33460757  0.00000000  1
  V  V1  1  0.49949376  0.83460757  0.50000000  1
  V  V2  1  0.50050624  0.16539243  0.50000000  1
  V  V3  1  0.99949376  0.66539243  0.00000000  1
  W  W0  1  0.00000000  0.00000000  0.00000000  1
  W  W1  1  0.50000000  0.50000000  0.50000000  1
