# generated using pymatgen
data_1514_Ga16Pt8
_symmetry_space_group_name_H-M   'Fd -3 m'
_cell_length_a   8.36822340
_cell_length_b   8.36822340
_cell_length_c   8.36822340
_cell_angle_alpha   60.00000000
_cell_angle_beta   60.00000000
_cell_angle_gamma   60.00000000
_chemical_formula_structural   Ga16Pt8
_chemical_formula_sum   'Ga16 Pt8'
_cell_volume   414.36665423
loop_
 _symmetry_equiv_pos_site_id
 _symmetry_equiv_pos_as_xyz
  1  'x, y, z'
loop_
 _atom_type_symbol
  Ga
  Pt
loop_
 _atom_site_type_symbol
 _atom_site_label
 _atom_site_symmetry_multiplicity
 _atom_site_fract_x
 _atom_site_fract_y
 _atom_site_fract_z
 _atom_site_occupancy
  Ga  Ga0  1  0.50000000  0.00000000  0.50000000  1
  Ga  Ga1  1  0.50000000  0.00000000  0.00000000  1
  Ga  Ga2  1  0.00000000  0.00000000  0.50000000  1
  Ga  Ga3  1  0.50000000  0.50000000  0.50000000  1
  Ga  Ga4  1  0.33443603  0.83443603  0.91556397  1
  Ga  Ga5  1  0.91556397  0.83443603  0.33443603  1
  Ga  Ga6  1  0.91556397  0.83443603  0.91556397  1
  Ga  Ga7  1  0.33443603  0.41556397  0.33443603  1
  Ga  Ga8  1  0.33443603  0.41556397  0.91556397  1
  Ga  Ga9  1  0.91556397  0.41556397  0.33443603  1
  Ga  Ga10  1  0.66556397  0.16556397  0.08443603  1
  Ga  Ga11  1  0.08443603  0.16556397  0.66556397  1
  Ga  Ga12  1  0.08443603  0.16556397  0.08443603  1
  Ga  Ga13  1  0.66556397  0.58443603  0.66556397  1
  Ga  Ga14  1  0.66556397  0.58443603  0.08443603  1
  Ga  Ga15  1  0.08443603  0.58443603  0.66556397  1
  Pt  Pt0  1  0.73100708  0.80697876  0.73100708  1
  Pt  Pt1  1  0.30697876  0.23100708  0.73100708  1
  Pt  Pt2  1  0.73100708  0.23100708  0.30697876  1
  Pt  Pt3  1  0.73100708  0.23100708  0.73100708  1
  Pt  Pt4  1  0.26899292  0.19302124  0.26899292  1
  Pt  Pt5  1  0.69302124  0.76899292  0.26899292  1
  Pt  Pt6  1  0.26899292  0.76899292  0.69302124  1
  Pt  Pt7  1  0.26899292  0.76899292  0.26899292  1
