# generated using pymatgen
data_1518_Mo2Pb4
_symmetry_space_group_name_H-M   'Cmcm'
_cell_length_a   9.16466392
_cell_length_b   9.16466392
_cell_length_c   5.10367890
_cell_angle_alpha   90.00000000
_cell_angle_beta   90.00000000
_cell_angle_gamma   159.50943116
_chemical_formula_structural   Mo2Pb4
_chemical_formula_sum   'Mo2 Pb4'
_cell_volume   150.05500199
loop_
 _symmetry_equiv_pos_site_id
 _symmetry_equiv_pos_as_xyz
  1  'x, y, z'
loop_
 _atom_type_symbol
  Mo
  Pb
loop_
 _atom_site_type_symbol
 _atom_site_label
 _atom_site_symmetry_multiplicity
 _atom_site_fract_x
 _atom_site_fract_y
 _atom_site_fract_z
 _atom_site_occupancy
  Mo  Mo0  1  0.00029726  0.99970274  0.00000000  1
  Mo  Mo1  1  0.44414718  0.55585282  0.50000000  1
  Pb  Pb0  1  0.36807745  0.63192255  0.00000000  1
  Pb  Pb1  1  0.64694535  0.35305465  0.00000000  1
  Pb  Pb2  1  0.79749909  0.20250091  0.50000000  1
  Pb  Pb3  1  0.07636700  0.92363300  0.50000000  1
