# generated using pymatgen
data_151_Ir2Mo4
_symmetry_space_group_name_H-M   'Pnnm'
_cell_length_a   2.76764878
_cell_length_b   7.91041377
_cell_length_c   4.11528407
_cell_angle_alpha   90.00000000
_cell_angle_beta   90.00000000
_cell_angle_gamma   90.00000000
_chemical_formula_structural   Ir2Mo4
_chemical_formula_sum   'Ir2 Mo4'
_cell_volume   90.09693070
loop_
 _symmetry_equiv_pos_site_id
 _symmetry_equiv_pos_as_xyz
  1  'x, y, z'
loop_
 _atom_type_symbol
  Ir
  Mo
loop_
 _atom_site_type_symbol
 _atom_site_label
 _atom_site_symmetry_multiplicity
 _atom_site_fract_x
 _atom_site_fract_y
 _atom_site_fract_z
 _atom_site_occupancy
  Ir  Ir0  1  0.00000000  0.00000000  0.00000000  1
  Ir  Ir1  1  0.50000000  0.50000000  0.50000000  1
  Mo  Mo0  1  0.06121072  0.33783782  0.00000000  1
  Mo  Mo1  1  0.43878928  0.83783782  0.50000000  1
  Mo  Mo2  1  0.56121072  0.16216218  0.50000000  1
  Mo  Mo3  1  0.93878928  0.66216218  0.00000000  1
