# generated using pymatgen
data_1521_InBr5
_symmetry_space_group_name_H-M   'Amm2'
_cell_length_a   7.02470216
_cell_length_b   7.02470216
_cell_length_c   7.28251542
_cell_angle_alpha   90.00000000
_cell_angle_beta   90.00000000
_cell_angle_gamma   147.63653028
_chemical_formula_structural   InBr5
_chemical_formula_sum   'Br5 In1'
_cell_volume   192.36455260
loop_
 _symmetry_equiv_pos_site_id
 _symmetry_equiv_pos_as_xyz
  1  'x, y, z'
loop_
 _atom_type_symbol
  Br
  In
loop_
 _atom_site_type_symbol
 _atom_site_label
 _atom_site_symmetry_multiplicity
 _atom_site_fract_x
 _atom_site_fract_y
 _atom_site_fract_z
 _atom_site_occupancy
  Br  Br0  1  0.99088171  0.00911829  0.00000000  1
  Br  Br1  1  0.32608990  0.67391010  0.00000000  1
  Br  Br2  1  0.65918741  0.34081259  0.00000000  1
  Br  Br3  1  0.47737790  0.52262210  0.50000000  1
  Br  Br4  1  0.76131182  0.23868818  0.50000000  1
  In  In0  1  0.11848459  0.88151541  0.50000000  1
