# generated using pymatgen
data_1523_Ga2Br6
_symmetry_space_group_name_H-M   'Cmcm'
_cell_length_a   8.85475970
_cell_length_b   8.85475970
_cell_length_c   4.68996890
_cell_angle_alpha   90.00000000
_cell_angle_beta   90.00000000
_cell_angle_gamma   105.47259889
_chemical_formula_structural   Ga2Br6
_chemical_formula_sum   'Br6 Ga2'
_cell_volume   354.39826283
loop_
 _symmetry_equiv_pos_site_id
 _symmetry_equiv_pos_as_xyz
  1  'x, y, z'
loop_
 _atom_type_symbol
  Br
  Ga
loop_
 _atom_site_type_symbol
 _atom_site_label
 _atom_site_symmetry_multiplicity
 _atom_site_fract_x
 _atom_site_fract_y
 _atom_site_fract_z
 _atom_site_occupancy
  Br  Br0  1  0.97037687  0.02962313  0.75000000  1
  Br  Br1  1  0.02962313  0.97037687  0.25000000  1
  Br  Br2  1  0.82981080  0.54099198  0.75000000  1
  Br  Br3  1  0.17018920  0.45900802  0.25000000  1
  Br  Br4  1  0.45900802  0.17018920  0.75000000  1
  Br  Br5  1  0.54099198  0.82981080  0.25000000  1
  Ga  Ga0  1  0.44079383  0.55920617  0.25000000  1
  Ga  Ga1  1  0.55920617  0.44079383  0.75000000  1
