# generated using pymatgen
data_1527_Ba2Br2
_symmetry_space_group_name_H-M   'P4/nmm'
_cell_length_a   4.66765458
_cell_length_b   4.66765458
_cell_length_c   7.51653120
_cell_angle_alpha   90.00000000
_cell_angle_beta   90.00000000
_cell_angle_gamma   90.00000000
_chemical_formula_structural   Ba2Br2
_chemical_formula_sum   'Ba2 Br2'
_cell_volume   163.76265983
loop_
 _symmetry_equiv_pos_site_id
 _symmetry_equiv_pos_as_xyz
  1  'x, y, z'
loop_
 _atom_type_symbol
  Ba
  Br
loop_
 _atom_site_type_symbol
 _atom_site_label
 _atom_site_symmetry_multiplicity
 _atom_site_fract_x
 _atom_site_fract_y
 _atom_site_fract_z
 _atom_site_occupancy
  Ba  Ba0  1  0.00000000  0.00000000  0.91892243  1
  Ba  Ba1  1  0.50000000  0.50000000  0.33107757  1
  Br  Br0  1  0.00000000  0.00000000  0.45948738  1
  Br  Br1  1  0.50000000  0.50000000  0.79051262  1
