# generated using pymatgen
data_1529_AgCa2
_symmetry_space_group_name_H-M   'I4/mmm'
_cell_length_a   7.12445119
_cell_length_b   7.12445119
_cell_length_c   7.12445119
_cell_angle_alpha   149.56763752
_cell_angle_beta   149.56763752
_cell_angle_gamma   43.57643635
_chemical_formula_structural   AgCa2
_chemical_formula_sum   'Ag1 Ca2'
_cell_volume   92.52457808
loop_
 _symmetry_equiv_pos_site_id
 _symmetry_equiv_pos_as_xyz
  1  'x, y, z'
loop_
 _atom_type_symbol
  Ag
  Ca
loop_
 _atom_site_type_symbol
 _atom_site_label
 _atom_site_symmetry_multiplicity
 _atom_site_fract_x
 _atom_site_fract_y
 _atom_site_fract_z
 _atom_site_occupancy
  Ag  Ag0  1  0.00000000  0.00000000  0.00000000  1
  Ca  Ca0  1  0.63777499  0.63777499  0.00000000  1
  Ca  Ca1  1  0.36222501  0.36222501  0.00000000  1
