# generated using pymatgen
data_152_Ni2As6
_symmetry_space_group_name_H-M   'I4/mmm'
_cell_length_a   9.55563330
_cell_length_b   9.55563330
_cell_length_c   9.55563330
_cell_angle_alpha   155.80008266
_cell_angle_beta   155.80008266
_cell_angle_gamma   34.48834234
_chemical_formula_structural   Ni2As6
_chemical_formula_sum   'As6 Ni2'
_cell_volume   146.46070846
loop_
 _symmetry_equiv_pos_site_id
 _symmetry_equiv_pos_as_xyz
  1  'x, y, z'
loop_
 _atom_type_symbol
  As
  Ni
loop_
 _atom_site_type_symbol
 _atom_site_label
 _atom_site_symmetry_multiplicity
 _atom_site_fract_x
 _atom_site_fract_y
 _atom_site_fract_z
 _atom_site_occupancy
  As  As0  1  0.50000000  0.00000000  0.50000000  1
  As  As1  1  0.00000000  0.50000000  0.50000000  1
  As  As2  1  0.25000000  0.75000000  0.50000000  1
  As  As3  1  0.75000000  0.25000000  0.50000000  1
  As  As4  1  0.88904711  0.88904711  0.00000000  1
  As  As5  1  0.11095289  0.11095289  0.00000000  1
  Ni  Ni0  1  0.67680998  0.67680998  0.00000000  1
  Ni  Ni1  1  0.32319002  0.32319002  0.00000000  1
