# generated using pymatgen
data_1533_Ga5P24
_symmetry_space_group_name_H-M   'I-43m'
_cell_length_a   9.45660777
_cell_length_b   9.45660777
_cell_length_c   9.45660777
_cell_angle_alpha   109.47122063
_cell_angle_beta   109.47122063
_cell_angle_gamma   109.47122063
_chemical_formula_structural   Ga5P24
_chemical_formula_sum   'Ga5 P24'
_cell_volume   651.00487031
loop_
 _symmetry_equiv_pos_site_id
 _symmetry_equiv_pos_as_xyz
  1  'x, y, z'
loop_
 _atom_type_symbol
  Ga
  P
loop_
 _atom_site_type_symbol
 _atom_site_label
 _atom_site_symmetry_multiplicity
 _atom_site_fract_x
 _atom_site_fract_y
 _atom_site_fract_z
 _atom_site_occupancy
  Ga  Ga0  1  1.00000000  0.00000000  0.42148132  1
  Ga  Ga1  1  1.00000000  0.42148132  0.00000000  1
  Ga  Ga2  1  0.57851868  0.57851868  0.57851868  1
  Ga  Ga3  1  0.42148132  0.00000000  0.00000000  1
  Ga  Ga4  1  0.00000000  0.00000000  0.00000000  1
  P  P0  1  0.00000000  0.79773221  0.65762405  1
  P  P1  1  0.00000000  0.65762405  0.79773221  1
  P  P2  1  0.14010815  0.34237595  0.34237595  1
  P  P3  1  0.85989185  0.20226779  0.20226779  1
  P  P4  1  0.79773221  0.00000000  0.65762405  1
  P  P5  1  0.65762405  0.00000000  0.79773221  1
  P  P6  1  0.20226779  0.85989185  0.20226779  1
  P  P7  1  0.34237595  0.14010815  0.34237595  1
  P  P8  1  0.20226779  0.20226779  0.85989185  1
  P  P9  1  0.34237595  0.34237595  0.14010815  1
  P  P10  1  0.65762405  0.79773221  0.00000000  1
  P  P11  1  0.79773221  0.65762405  0.00000000  1
  P  P12  1  0.00000000  0.42464724  0.62879137  1
  P  P13  1  1.00000000  0.62879137  0.42464724  1
  P  P14  1  0.79585587  0.37120863  0.37120863  1
  P  P15  1  0.20414413  0.57535276  0.57535276  1
  P  P16  1  0.42464724  0.00000000  0.62879137  1
  P  P17  1  0.62879137  0.00000000  0.42464724  1
  P  P18  1  0.57535276  0.20414413  0.57535276  1
  P  P19  1  0.37120863  0.79585587  0.37120863  1
  P  P20  1  0.57535276  0.57535276  0.20414413  1
  P  P21  1  0.37120863  0.37120863  0.79585587  1
  P  P22  1  0.62879137  0.42464724  0.00000000  1
  P  P23  1  0.42464724  0.62879137  0.00000000  1
