# generated using pymatgen
data_153_Al3V
_symmetry_space_group_name_H-M   'I4/mmm'
_cell_length_a   3.76566800
_cell_length_b   3.76566800
_cell_length_c   4.93239471
_cell_angle_alpha   112.44077054
_cell_angle_beta   112.44077054
_cell_angle_gamma   90.00000000
_chemical_formula_structural   Al3V
_chemical_formula_sum   'Al3 V1'
_cell_volume   58.87520128
loop_
 _symmetry_equiv_pos_site_id
 _symmetry_equiv_pos_as_xyz
  1  'x, y, z'
loop_
 _atom_type_symbol
  Al
  V
loop_
 _atom_site_type_symbol
 _atom_site_label
 _atom_site_symmetry_multiplicity
 _atom_site_fract_x
 _atom_site_fract_y
 _atom_site_fract_z
 _atom_site_occupancy
  Al  Al0  1  0.49999900  0.49999900  0.00000000  1
  Al  Al1  1  0.74999934  0.25000034  0.50000068  1
  Al  Al2  1  0.25000034  0.74999934  0.50000068  1
  V  V0  1  0.00000000  0.00000000  0.00000000  1
