# generated using pymatgen
data_1541_Pd8Ta22
_symmetry_space_group_name_H-M   'P4_2/mnm'
_cell_length_a   10.05590322
_cell_length_b   10.05590322
_cell_length_c   5.26348038
_cell_angle_alpha   90.00000000
_cell_angle_beta   90.00000000
_cell_angle_gamma   90.00000000
_chemical_formula_structural   Pd8Ta22
_chemical_formula_sum   'Pd8 Ta22'
_cell_volume   532.24939730
loop_
 _symmetry_equiv_pos_site_id
 _symmetry_equiv_pos_as_xyz
  1  'x, y, z'
loop_
 _atom_type_symbol
  Pd
  Ta
loop_
 _atom_site_type_symbol
 _atom_site_label
 _atom_site_symmetry_multiplicity
 _atom_site_fract_x
 _atom_site_fract_y
 _atom_site_fract_z
 _atom_site_occupancy
  Pd  Pd0  1  0.13437352  0.53748564  0.00000000  1
  Pd  Pd1  1  0.86562648  0.46251436  0.00000000  1
  Pd  Pd2  1  0.96251436  0.63437352  0.50000000  1
  Pd  Pd3  1  0.03748564  0.36562648  0.50000000  1
  Pd  Pd4  1  0.36562648  0.03748564  0.50000000  1
  Pd  Pd5  1  0.63437352  0.96251436  0.50000000  1
  Pd  Pd6  1  0.53748564  0.13437352  0.00000000  1
  Pd  Pd7  1  0.46251436  0.86562648  0.00000000  1
  Ta  Ta0  1  0.00000000  0.00000000  0.00000000  1
  Ta  Ta1  1  0.50000000  0.50000000  0.50000000  1
  Ta  Ta2  1  0.39496628  0.60503372  0.00000000  1
  Ta  Ta3  1  0.60503372  0.39496628  0.00000000  1
  Ta  Ta4  1  0.89496628  0.89496628  0.50000000  1
  Ta  Ta5  1  0.10503372  0.10503372  0.50000000  1
  Ta  Ta6  1  0.06756774  0.26973250  0.00000000  1
  Ta  Ta7  1  0.93243226  0.73026750  0.00000000  1
  Ta  Ta8  1  0.23026750  0.56756774  0.50000000  1
  Ta  Ta9  1  0.76973250  0.43243226  0.50000000  1
  Ta  Ta10  1  0.43243226  0.76973250  0.50000000  1
  Ta  Ta11  1  0.56756774  0.23026750  0.50000000  1
  Ta  Ta12  1  0.26973250  0.06756774  0.00000000  1
  Ta  Ta13  1  0.73026750  0.93243226  0.00000000  1
  Ta  Ta14  1  0.32124354  0.32124354  0.24896358  1
  Ta  Ta15  1  0.67875646  0.67875646  0.24896358  1
  Ta  Ta16  1  0.17875646  0.82124354  0.74896358  1
  Ta  Ta17  1  0.82124354  0.17875646  0.74896358  1
  Ta  Ta18  1  0.17875646  0.82124354  0.25103642  1
  Ta  Ta19  1  0.82124354  0.17875646  0.25103642  1
  Ta  Ta20  1  0.32124354  0.32124354  0.75103642  1
  Ta  Ta21  1  0.67875646  0.67875646  0.75103642  1
