# generated using pymatgen
data_1544_Mn2Sb2
_symmetry_space_group_name_H-M   'P4/nmm'
_cell_length_a   3.02830273
_cell_length_b   3.02830273
_cell_length_c   7.98440847
_cell_angle_alpha   90.00000000
_cell_angle_beta   90.00000000
_cell_angle_gamma   90.25887180
_chemical_formula_structural   Mn2Sb2
_chemical_formula_sum   'Mn2 Sb2'
_cell_volume   73.22120829
loop_
 _symmetry_equiv_pos_site_id
 _symmetry_equiv_pos_as_xyz
  1  'x, y, z'
loop_
 _atom_type_symbol
  Mn
  Sb
loop_
 _atom_site_type_symbol
 _atom_site_label
 _atom_site_symmetry_multiplicity
 _atom_site_fract_x
 _atom_site_fract_y
 _atom_site_fract_z
 _atom_site_occupancy
  Mn  Mn0  1  0.00000000  0.00000000  0.95348828  1
  Mn  Mn1  1  0.50000000  0.50000000  0.79651172  1
  Sb  Sb0  1  0.00000000  0.00000000  0.58346725  1
  Sb  Sb1  1  0.50000000  0.50000000  0.16653275  1
