# generated using pymatgen
data_1551_Cr16Nb4
_symmetry_space_group_name_H-M   'I23'
_cell_length_a   7.09217102
_cell_length_b   7.09217102
_cell_length_c   7.09217102
_cell_angle_alpha   109.47122063
_cell_angle_beta   109.47122063
_cell_angle_gamma   109.47122063
_chemical_formula_structural   Cr16Nb4
_chemical_formula_sum   'Cr16 Nb4'
_cell_volume   274.60959575
loop_
 _symmetry_equiv_pos_site_id
 _symmetry_equiv_pos_as_xyz
  1  'x, y, z'
loop_
 _atom_type_symbol
  Cr
  Nb
loop_
 _atom_site_type_symbol
 _atom_site_label
 _atom_site_symmetry_multiplicity
 _atom_site_fract_x
 _atom_site_fract_y
 _atom_site_fract_z
 _atom_site_occupancy
  Cr  Cr0  1  0.22157950  0.00000000  0.00000000  1
  Cr  Cr1  1  0.77842050  0.77842050  0.77842050  1
  Cr  Cr2  1  1.00000000  1.00000000  0.22157950  1
  Cr  Cr3  1  0.00000000  0.22157950  0.00000000  1
  Cr  Cr4  1  0.34352979  0.34352979  0.00000000  1
  Cr  Cr5  1  0.65647021  0.65647021  0.00000000  1
  Cr  Cr6  1  0.34352979  0.00000000  0.34352979  1
  Cr  Cr7  1  0.65647021  1.00000000  0.65647021  1
  Cr  Cr8  1  0.00000000  0.65647021  0.65647021  1
  Cr  Cr9  1  1.00000000  0.34352979  0.34352979  1
  Cr  Cr10  1  0.73962821  0.23962821  0.50000000  1
  Cr  Cr11  1  0.26037179  0.76037179  0.50000000  1
  Cr  Cr12  1  0.23962821  0.50000000  0.73962821  1
  Cr  Cr13  1  0.76037179  0.50000000  0.26037179  1
  Cr  Cr14  1  0.50000000  0.26037179  0.76037179  1
  Cr  Cr15  1  0.50000000  0.73962821  0.23962821  1
  Nb  Nb0  1  0.57318333  0.00000000  0.00000000  1
  Nb  Nb1  1  0.42681667  0.42681667  0.42681667  1
  Nb  Nb2  1  1.00000000  1.00000000  0.57318333  1
  Nb  Nb3  1  0.00000000  0.57318333  0.00000000  1
