# generated using pymatgen
data_1561_CrMn
_symmetry_space_group_name_H-M   'P-6m2'
_cell_length_a   2.48479378
_cell_length_b   2.48472471
_cell_length_c   4.19018329
_cell_angle_alpha   90.00000000
_cell_angle_beta   90.00000000
_cell_angle_gamma   120.00091956
_chemical_formula_structural   CrMn
_chemical_formula_sum   'Cr1 Mn1'
_cell_volume   22.40413898
loop_
 _symmetry_equiv_pos_site_id
 _symmetry_equiv_pos_as_xyz
  1  'x, y, z'
loop_
 _atom_type_symbol
  Cr
  Mn
loop_
 _atom_site_type_symbol
 _atom_site_label
 _atom_site_symmetry_multiplicity
 _atom_site_fract_x
 _atom_site_fract_y
 _atom_site_fract_z
 _atom_site_occupancy
  Cr  Cr0  1  0.66666932  0.33333765  0.75000000  1
  Mn  Mn0  1  0.33333068  0.66666235  0.25000000  1
