# generated using pymatgen
data_1562_NiP
_symmetry_space_group_name_H-M   'P-6m2'
_cell_length_a   3.34930920
_cell_length_b   3.34933850
_cell_length_c   2.56498718
_cell_angle_alpha   90.00000000
_cell_angle_beta   90.00000000
_cell_angle_gamma   119.99971058
_chemical_formula_structural   NiP
_chemical_formula_sum   'Ni1 P1'
_cell_volume   24.91904427
loop_
 _symmetry_equiv_pos_site_id
 _symmetry_equiv_pos_as_xyz
  1  'x, y, z'
loop_
 _atom_type_symbol
  Ni
  P
loop_
 _atom_site_type_symbol
 _atom_site_label
 _atom_site_symmetry_multiplicity
 _atom_site_fract_x
 _atom_site_fract_y
 _atom_site_fract_z
 _atom_site_occupancy
  Ni  Ni0  1  0.66666660  0.33333221  0.75000000  1
  P  P0  1  0.33333340  0.66666779  0.25000000  1
