# generated using pymatgen
data_1563_Ag2Na4
_symmetry_space_group_name_H-M   'Pnnm'
_cell_length_a   3.13055585
_cell_length_b   7.79197563
_cell_length_c   7.16532001
_cell_angle_alpha   90.00000000
_cell_angle_beta   90.00000000
_cell_angle_gamma   90.00000000
_chemical_formula_structural   Ag2Na4
_chemical_formula_sum   'Ag2 Na4'
_cell_volume   174.78519077
loop_
 _symmetry_equiv_pos_site_id
 _symmetry_equiv_pos_as_xyz
  1  'x, y, z'
loop_
 _atom_type_symbol
  Ag
  Na
loop_
 _atom_site_type_symbol
 _atom_site_label
 _atom_site_symmetry_multiplicity
 _atom_site_fract_x
 _atom_site_fract_y
 _atom_site_fract_z
 _atom_site_occupancy
  Ag  Ag0  1  0.00000000  0.00000000  0.00000000  1
  Ag  Ag1  1  0.50000000  0.50000000  0.50000000  1
  Na  Na0  1  0.00000000  0.20530437  0.66198874  1
  Na  Na1  1  0.00000000  0.79469563  0.33801126  1
  Na  Na2  1  0.50000000  0.70530437  0.83801126  1
  Na  Na3  1  0.50000000  0.29469563  0.16198874  1
