# generated using pymatgen
data_1568_Cs16Bi16
_symmetry_space_group_name_H-M   'P2_1/c'
_cell_length_a   7.78963600
_cell_length_b   14.53066911
_cell_length_c   15.39616432
_cell_angle_alpha   112.98071825
_cell_angle_beta   90.00000000
_cell_angle_gamma   90.00000000
_chemical_formula_structural   Cs16Bi16
_chemical_formula_sum   'Bi16 Cs16'
_cell_volume   1604.36584128
loop_
 _symmetry_equiv_pos_site_id
 _symmetry_equiv_pos_as_xyz
  1  'x, y, z'
loop_
 _atom_type_symbol
  Bi
  Cs
loop_
 _atom_site_type_symbol
 _atom_site_label
 _atom_site_symmetry_multiplicity
 _atom_site_fract_x
 _atom_site_fract_y
 _atom_site_fract_z
 _atom_site_occupancy
  Bi  Bi0  1  0.64741148  0.18281930  0.06550955  1
  Bi  Bi1  1  0.85258922  0.68281957  0.06550982  1
  Bi  Bi2  1  0.38616822  0.35350932  0.10237306  1
  Bi  Bi3  1  0.11383201  0.85350959  0.10237332  1
  Bi  Bi4  1  0.43754674  0.76945742  0.40091497  1
  Bi  Bi5  1  0.06245349  0.26945790  0.40091497  1
  Bi  Bi6  1  0.70266823  0.62436214  0.42820661  1
  Bi  Bi7  1  0.79733118  0.12436262  0.42820662  1
  Bi  Bi8  1  0.20266800  0.87563737  0.57179343  1
  Bi  Bi9  1  0.29733095  0.37563785  0.57179344  1
  Bi  Bi10  1  0.93754697  0.73054209  0.59908508  1
  Bi  Bi11  1  0.56245244  0.23054257  0.59908508  1
  Bi  Bi12  1  0.88616716  0.14649040  0.89762673  1
  Bi  Bi13  1  0.61383224  0.64649067  0.89762699  1
  Bi  Bi14  1  0.14741124  0.31718042  0.93449023  1
  Bi  Bi15  1  0.35258899  0.81718069  0.93449050  1
  Cs  Cs0  1  0.37121630  0.63469578  0.12100088  1
  Cs  Cs1  1  0.12878393  0.13469627  0.12100153  1
  Cs  Cs2  1  0.86679784  0.44815950  0.15448319  1
  Cs  Cs3  1  0.63320157  0.94815976  0.15448346  1
  Cs  Cs4  1  0.92630511  0.81226740  0.34133427  1
  Cs  Cs5  1  0.57369430  0.31226788  0.34133428  1
  Cs  Cs6  1  0.20001961  0.53225426  0.39468654  1
  Cs  Cs7  1  0.29998063  0.03225399  0.39468693  1
  Cs  Cs8  1  0.70001984  0.96774600  0.60531312  1
  Cs  Cs9  1  0.79998086  0.46774573  0.60531351  1
  Cs  Cs10  1  0.42630488  0.68773211  0.65866577  1
  Cs  Cs11  1  0.07369407  0.18773259  0.65866578  1
  Cs  Cs12  1  0.36679761  0.05184023  0.84551659  1
  Cs  Cs13  1  0.13320262  0.55184049  0.84551686  1
  Cs  Cs14  1  0.87121525  0.86530372  0.87899852  1
  Cs  Cs15  1  0.62878416  0.36530421  0.87899917  1
