# generated using pymatgen
data_1569_Pd20Ta10
_symmetry_space_group_name_H-M   'P4_2/mnm'
_cell_length_a   9.74595961
_cell_length_b   9.74595961
_cell_length_c   5.13664561
_cell_angle_alpha   90.00000000
_cell_angle_beta   90.00000000
_cell_angle_gamma   90.00000000
_chemical_formula_structural   Pd20Ta10
_chemical_formula_sum   'Pd20 Ta10'
_cell_volume   487.89775315
loop_
 _symmetry_equiv_pos_site_id
 _symmetry_equiv_pos_as_xyz
  1  'x, y, z'
loop_
 _atom_type_symbol
  Pd
  Ta
loop_
 _atom_site_type_symbol
 _atom_site_label
 _atom_site_symmetry_multiplicity
 _atom_site_fract_x
 _atom_site_fract_y
 _atom_site_fract_z
 _atom_site_occupancy
  Pd  Pd0  1  0.40123209  0.59876791  0.00000000  1
  Pd  Pd1  1  0.59876791  0.40123209  0.00000000  1
  Pd  Pd2  1  0.90123209  0.90123209  0.50000000  1
  Pd  Pd3  1  0.09876791  0.09876791  0.50000000  1
  Pd  Pd4  1  0.06214043  0.26456741  0.00000000  1
  Pd  Pd5  1  0.93785957  0.73543259  0.00000000  1
  Pd  Pd6  1  0.23543259  0.56214043  0.50000000  1
  Pd  Pd7  1  0.76456741  0.43785957  0.50000000  1
  Pd  Pd8  1  0.43785957  0.76456741  0.50000000  1
  Pd  Pd9  1  0.56214043  0.23543259  0.50000000  1
  Pd  Pd10  1  0.26456741  0.06214043  0.00000000  1
  Pd  Pd11  1  0.73543259  0.93785957  0.00000000  1
  Pd  Pd12  1  0.32080399  0.32080399  0.24932437  1
  Pd  Pd13  1  0.67919601  0.67919601  0.24932437  1
  Pd  Pd14  1  0.17919601  0.82080399  0.74932437  1
  Pd  Pd15  1  0.82080399  0.17919601  0.74932437  1
  Pd  Pd16  1  0.17919601  0.82080399  0.25067563  1
  Pd  Pd17  1  0.82080399  0.17919601  0.25067563  1
  Pd  Pd18  1  0.32080399  0.32080399  0.75067563  1
  Pd  Pd19  1  0.67919601  0.67919601  0.75067563  1
  Ta  Ta0  1  0.00000000  0.00000000  0.00000000  1
  Ta  Ta1  1  0.50000000  0.50000000  0.50000000  1
  Ta  Ta2  1  0.13822102  0.53820205  0.00000000  1
  Ta  Ta3  1  0.86177898  0.46179795  0.00000000  1
  Ta  Ta4  1  0.96179795  0.63822102  0.50000000  1
  Ta  Ta5  1  0.03820205  0.36177898  0.50000000  1
  Ta  Ta6  1  0.36177898  0.03820205  0.50000000  1
  Ta  Ta7  1  0.63822102  0.96179795  0.50000000  1
  Ta  Ta8  1  0.53820205  0.13822102  0.00000000  1
  Ta  Ta9  1  0.46179795  0.86177898  0.00000000  1
