# generated using pymatgen
data_1572_Ba2Ta2
_symmetry_space_group_name_H-M   'Imma'
_cell_length_a   6.97121891
_cell_length_b   6.97121891
_cell_length_c   6.97121891
_cell_angle_alpha   150.98490116
_cell_angle_beta   127.27781744
_cell_angle_gamma   61.30334433
_chemical_formula_structural   Ba2Ta2
_chemical_formula_sum   'Ba2 Ta2'
_cell_volume   129.67532243
loop_
 _symmetry_equiv_pos_site_id
 _symmetry_equiv_pos_as_xyz
  1  'x, y, z'
loop_
 _atom_type_symbol
  Ba
  Ta
loop_
 _atom_site_type_symbol
 _atom_site_label
 _atom_site_symmetry_multiplicity
 _atom_site_fract_x
 _atom_site_fract_y
 _atom_site_fract_z
 _atom_site_occupancy
  Ba  Ba0  1  0.97563213  0.97563213  1.00000000  1
  Ba  Ba1  1  0.27436787  0.77436787  0.50000000  1
  Ta  Ta0  1  0.54615622  0.54615622  1.00000000  1
  Ta  Ta1  1  0.70384378  0.20384378  0.50000000  1
