# generated using pymatgen
data_1578_Fe12W12
_symmetry_space_group_name_H-M   'Pbcm'
_cell_length_a   8.95746871
_cell_length_b   7.14194888
_cell_length_c   5.02549000
_cell_angle_alpha   90.00000000
_cell_angle_beta   90.00000000
_cell_angle_gamma   90.00000000
_chemical_formula_structural   Fe12W12
_chemical_formula_sum   'Fe12 W12'
_cell_volume   321.49960985
loop_
 _symmetry_equiv_pos_site_id
 _symmetry_equiv_pos_as_xyz
  1  'x, y, z'
loop_
 _atom_type_symbol
  Fe
  W
loop_
 _atom_site_type_symbol
 _atom_site_label
 _atom_site_symmetry_multiplicity
 _atom_site_fract_x
 _atom_site_fract_y
 _atom_site_fract_z
 _atom_site_occupancy
  Fe  Fe0  1  0.12766065  0.91750401  0.25000000  1
  Fe  Fe1  1  0.87233935  0.08249599  0.75000000  1
  Fe  Fe2  1  0.87233935  0.41750401  0.25000000  1
  Fe  Fe3  1  0.12766065  0.58249599  0.75000000  1
  Fe  Fe4  1  0.44654926  0.45837821  0.25000000  1
  Fe  Fe5  1  0.55345074  0.54162179  0.75000000  1
  Fe  Fe6  1  0.55345074  0.95837821  0.25000000  1
  Fe  Fe7  1  0.44654926  0.04162179  0.75000000  1
  Fe  Fe8  1  0.07116822  0.25000000  0.00000000  1
  Fe  Fe9  1  0.92883178  0.75000000  0.50000000  1
  Fe  Fe10  1  0.92883178  0.75000000  0.00000000  1
  Fe  Fe11  1  0.07116822  0.25000000  0.50000000  1
  W  W0  1  0.13958474  0.53339901  0.25000000  1
  W  W1  1  0.86041526  0.46660099  0.75000000  1
  W  W2  1  0.86041526  0.03339901  0.25000000  1
  W  W3  1  0.13958474  0.96660099  0.75000000  1
  W  W4  1  0.32180944  0.14893374  0.25000000  1
  W  W5  1  0.67819056  0.85106626  0.75000000  1
  W  W6  1  0.67819056  0.64893374  0.25000000  1
  W  W7  1  0.32180944  0.35106626  0.75000000  1
  W  W8  1  0.63317361  0.25000000  0.00000000  1
  W  W9  1  0.36682639  0.75000000  0.50000000  1
  W  W10  1  0.36682639  0.75000000  0.00000000  1
  W  W11  1  0.63317361  0.25000000  0.50000000  1
