# generated using pymatgen
data_1583_Ag3Br
_symmetry_space_group_name_H-M   'Imm2'
_cell_length_a   5.81835656
_cell_length_b   5.81835656
_cell_length_c   5.81835656
_cell_angle_alpha   147.37144647
_cell_angle_beta   128.48207393
_cell_angle_gamma   62.32513774
_chemical_formula_structural   Ag3Br
_chemical_formula_sum   'Ag3 Br1'
_cell_volume   82.30391131
loop_
 _symmetry_equiv_pos_site_id
 _symmetry_equiv_pos_as_xyz
  1  'x, y, z'
loop_
 _atom_type_symbol
  Ag
  Br
loop_
 _atom_site_type_symbol
 _atom_site_label
 _atom_site_symmetry_multiplicity
 _atom_site_fract_x
 _atom_site_fract_y
 _atom_site_fract_z
 _atom_site_occupancy
  Ag  Ag0  1  0.99702451  0.99007064  0.00695386  1
  Ag  Ag1  1  0.51688322  0.50992936  0.00695386  1
  Ag  Ag2  1  0.91530819  0.25000000  0.66530819  1
  Br  Br0  1  0.40411742  0.75000000  0.65411742  1
