# generated using pymatgen
data_1586_Cu6Pt5
_symmetry_space_group_name_H-M   'P1'
_cell_length_a   4.65176393
_cell_length_b   6.04614685
_cell_length_c   5.97664894
_cell_angle_alpha   72.24418707
_cell_angle_beta   75.36298940
_cell_angle_gamma   96.99761996
_chemical_formula_structural   Cu6Pt5
_chemical_formula_sum   'Cu6 Pt5'
_cell_volume   151.24095675
loop_
 _symmetry_equiv_pos_site_id
 _symmetry_equiv_pos_as_xyz
  1  'x, y, z'
loop_
 _atom_type_symbol
  Cu
  Pt
loop_
 _atom_site_type_symbol
 _atom_site_label
 _atom_site_symmetry_multiplicity
 _atom_site_fract_x
 _atom_site_fract_y
 _atom_site_fract_z
 _atom_site_occupancy
  Cu  Cu0  1  0.99636126  0.00172635  0.00636577  1
  Cu  Cu1  1  0.45445934  0.09087036  0.18240436  1
  Cu  Cu2  1  0.91187048  0.18281125  0.35457112  1
  Cu  Cu3  1  0.27070049  0.44953971  0.91378164  1
  Cu  Cu4  1  0.72689809  0.54215657  0.09330164  1
  Cu  Cu5  1  0.63960356  0.73262346  0.44889935  1
  Pt  Pt0  1  0.37280464  0.27503747  0.53592244  1
  Pt  Pt1  1  0.81440637  0.36291009  0.74126899  1
  Pt  Pt2  1  0.17569723  0.63531178  0.26607084  1
  Pt  Pt3  1  0.09133063  0.81849497  0.63481255  1
  Pt  Pt4  1  0.54586789  0.90851798  0.82260130  1
