# generated using pymatgen
data_1587_Nb4W4
_symmetry_space_group_name_H-M   'Pnma'
_cell_length_a   5.55073285
_cell_length_b   4.74518368
_cell_length_c   5.29622054
_cell_angle_alpha   90.00000000
_cell_angle_beta   90.00000000
_cell_angle_gamma   90.00000000
_chemical_formula_structural   Nb4W4
_chemical_formula_sum   'Nb4 W4'
_cell_volume   139.49846061
loop_
 _symmetry_equiv_pos_site_id
 _symmetry_equiv_pos_as_xyz
  1  'x, y, z'
loop_
 _atom_type_symbol
  Nb
  W
loop_
 _atom_site_type_symbol
 _atom_site_label
 _atom_site_symmetry_multiplicity
 _atom_site_fract_x
 _atom_site_fract_y
 _atom_site_fract_z
 _atom_site_occupancy
  Nb  Nb0  1  0.11881288  0.25000000  0.13335927  1
  Nb  Nb1  1  0.38118712  0.75000000  0.63335927  1
  Nb  Nb2  1  0.61881288  0.25000000  0.36664073  1
  Nb  Nb3  1  0.88118712  0.75000000  0.86664073  1
  W  W0  1  0.10187986  0.25000000  0.63616722  1
  W  W1  1  0.39812014  0.75000000  0.13616722  1
  W  W2  1  0.60187986  0.25000000  0.86383278  1
  W  W3  1  0.89812014  0.75000000  0.36383278  1
