# generated using pymatgen
data_1596_Ag4Ge6
_symmetry_space_group_name_H-M   'Fdd2'
_cell_length_a   11.08562834
_cell_length_b   9.53127414
_cell_length_c   6.13863192
_cell_angle_alpha   87.23895587
_cell_angle_beta   59.18082004
_cell_angle_gamma   33.58022409
_chemical_formula_structural   Ag4Ge6
_chemical_formula_sum   'Ag4 Ge6'
_cell_volume   186.00772065
loop_
 _symmetry_equiv_pos_site_id
 _symmetry_equiv_pos_as_xyz
  1  'x, y, z'
loop_
 _atom_type_symbol
  Ag
  Ge
loop_
 _atom_site_type_symbol
 _atom_site_label
 _atom_site_symmetry_multiplicity
 _atom_site_fract_x
 _atom_site_fract_y
 _atom_site_fract_z
 _atom_site_occupancy
  Ag  Ag0  1  0.22796726  0.85673377  0.39705881  1
  Ag  Ag1  1  0.51824015  0.39705881  0.85673377  1
  Ag  Ag2  1  0.39326623  0.02203274  0.73175985  1
  Ag  Ag3  1  0.85294119  0.73175985  0.02203274  1
  Ge  Ge0  1  0.73901930  0.46455209  0.34296016  1
  Ge  Ge1  1  0.45346845  0.34296016  0.46455209  1
  Ge  Ge2  1  0.78544791  0.51098070  0.79653155  1
  Ge  Ge3  1  0.90703984  0.79653155  0.51098070  1
  Ge  Ge4  1  0.06130483  0.93869517  0.93869517  1
  Ge  Ge5  1  0.31130483  0.18869517  0.18869517  1
