# generated using pymatgen
data_1598_IrTh
_symmetry_space_group_name_H-M   'P-6m2'
_cell_length_a   3.84730600
_cell_length_b   3.84733618
_cell_length_c   3.80317000
_cell_angle_alpha   90.00000000
_cell_angle_beta   90.00000000
_cell_angle_gamma   119.99975773
_chemical_formula_structural   IrTh
_chemical_formula_sum   'Ir1 Th1'
_cell_volume   48.75220876
loop_
 _symmetry_equiv_pos_site_id
 _symmetry_equiv_pos_as_xyz
  1  'x, y, z'
loop_
 _atom_type_symbol
  Ir
  Th
loop_
 _atom_site_type_symbol
 _atom_site_label
 _atom_site_symmetry_multiplicity
 _atom_site_fract_x
 _atom_site_fract_y
 _atom_site_fract_z
 _atom_site_occupancy
  Ir  Ir0  1  0.66666696  0.33333543  0.75000075  1
  Th  Th0  1  0.33333253  0.66666482  0.24999938  1
