# generated using pymatgen
data_1604_Cu16Ni4
_symmetry_space_group_name_H-M   'I-43m'
_cell_length_a   6.99536244
_cell_length_b   6.99536244
_cell_length_c   6.99536244
_cell_angle_alpha   109.47122063
_cell_angle_beta   109.47122063
_cell_angle_gamma   109.47122063
_chemical_formula_structural   Cu16Ni4
_chemical_formula_sum   'Cu16 Ni4'
_cell_volume   263.51708182
loop_
 _symmetry_equiv_pos_site_id
 _symmetry_equiv_pos_as_xyz
  1  'x, y, z'
loop_
 _atom_type_symbol
  Cu
  Ni
loop_
 _atom_site_type_symbol
 _atom_site_label
 _atom_site_symmetry_multiplicity
 _atom_site_fract_x
 _atom_site_fract_y
 _atom_site_fract_z
 _atom_site_occupancy
  Cu  Cu0  1  0.33087604  0.00000000  0.00000000  1
  Cu  Cu1  1  0.66912396  0.66912396  0.66912396  1
  Cu  Cu2  1  0.00000000  0.00000000  0.33087604  1
  Cu  Cu3  1  1.00000000  0.33087604  0.00000000  1
  Cu  Cu4  1  0.34248826  0.34248826  0.00000000  1
  Cu  Cu5  1  0.65751174  0.65751174  0.00000000  1
  Cu  Cu6  1  0.34248826  1.00000000  0.34248826  1
  Cu  Cu7  1  0.65751174  1.00000000  0.65751174  1
  Cu  Cu8  1  0.00000000  0.65751174  0.65751174  1
  Cu  Cu9  1  0.00000000  0.34248826  0.34248826  1
  Cu  Cu10  1  0.74991011  0.24991011  0.50000000  1
  Cu  Cu11  1  0.25008989  0.75008989  0.50000000  1
  Cu  Cu12  1  0.24991011  0.50000000  0.74991011  1
  Cu  Cu13  1  0.75008989  0.50000000  0.25008989  1
  Cu  Cu14  1  0.50000000  0.25008989  0.75008989  1
  Cu  Cu15  1  0.50000000  0.74991011  0.24991011  1
  Ni  Ni0  1  0.67072971  0.00000000  0.00000000  1
  Ni  Ni1  1  0.32927029  0.32927029  0.32927029  1
  Ni  Ni2  1  1.00000000  0.00000000  0.67072971  1
  Ni  Ni3  1  1.00000000  0.67072971  0.00000000  1
