# generated using pymatgen
data_1605_Ge8P4
_symmetry_space_group_name_H-M   'Pnma'
_cell_length_a   3.80552517
_cell_length_b   5.77621396
_cell_length_c   10.52911442
_cell_angle_alpha   90.00000000
_cell_angle_beta   90.00000000
_cell_angle_gamma   90.00000000
_chemical_formula_structural   Ge8P4
_chemical_formula_sum   'Ge8 P4'
_cell_volume   231.44601935
loop_
 _symmetry_equiv_pos_site_id
 _symmetry_equiv_pos_as_xyz
  1  'x, y, z'
loop_
 _atom_type_symbol
  Ge
  P
loop_
 _atom_site_type_symbol
 _atom_site_label
 _atom_site_symmetry_multiplicity
 _atom_site_fract_x
 _atom_site_fract_y
 _atom_site_fract_z
 _atom_site_occupancy
  Ge  Ge0  1  0.25000000  0.89771003  0.82599747  1
  Ge  Ge1  1  0.75000000  0.60228997  0.32599747  1
  Ge  Ge2  1  0.25000000  0.39771003  0.67400253  1
  Ge  Ge3  1  0.75000000  0.10228997  0.17400253  1
  Ge  Ge4  1  0.25000000  0.12624524  0.38205604  1
  Ge  Ge5  1  0.75000000  0.37375476  0.88205604  1
  Ge  Ge6  1  0.25000000  0.62624524  0.11794396  1
  Ge  Ge7  1  0.75000000  0.87375476  0.61794396  1
  P  P0  1  0.25000000  0.73002687  0.47467480  1
  P  P1  1  0.75000000  0.76997313  0.97467480  1
  P  P2  1  0.25000000  0.23002687  0.02532520  1
  P  P3  1  0.75000000  0.26997313  0.52532520  1
