# generated using pymatgen
data_160_Ba2Pt2
_symmetry_space_group_name_H-M   'P6_3/mmc'
_cell_length_a   5.20228218
_cell_length_b   5.20228218
_cell_length_c   6.47836800
_cell_angle_alpha   90.00000000
_cell_angle_beta   90.00000000
_cell_angle_gamma   119.99997685
_chemical_formula_structural   Ba2Pt2
_chemical_formula_sum   'Ba2 Pt2'
_cell_volume   151.83928773
loop_
 _symmetry_equiv_pos_site_id
 _symmetry_equiv_pos_as_xyz
  1  'x, y, z'
loop_
 _atom_type_symbol
  Ba
  Pt
loop_
 _atom_site_type_symbol
 _atom_site_label
 _atom_site_symmetry_multiplicity
 _atom_site_fract_x
 _atom_site_fract_y
 _atom_site_fract_z
 _atom_site_occupancy
  Ba  Ba0  1  0.00000000  0.00000000  0.93821592  1
  Ba  Ba1  1  0.33333281  0.66666631  0.43821529  1
  Pt  Pt0  1  0.00000000  0.00000000  0.43678438  1
  Pt  Pt1  1  0.33333281  0.66666631  0.93678529  1
