# generated using pymatgen
data_1613_P12As17
_symmetry_space_group_name_H-M   'I-43m'
_cell_length_a   9.76842269
_cell_length_b   9.76842269
_cell_length_c   9.76842269
_cell_angle_alpha   109.47122063
_cell_angle_beta   109.47122063
_cell_angle_gamma   109.47122063
_chemical_formula_structural   P12As17
_chemical_formula_sum   'As17 P12'
_cell_volume   717.54879675
loop_
 _symmetry_equiv_pos_site_id
 _symmetry_equiv_pos_as_xyz
  1  'x, y, z'
loop_
 _atom_type_symbol
  As
  P
loop_
 _atom_site_type_symbol
 _atom_site_label
 _atom_site_symmetry_multiplicity
 _atom_site_fract_x
 _atom_site_fract_y
 _atom_site_fract_z
 _atom_site_occupancy
  As  As0  1  0.78629621  0.00000000  0.41904989  1
  As  As1  1  0.41904989  0.00000000  0.78629621  1
  As  As2  1  0.58095011  0.36724631  0.58095011  1
  As  As3  1  0.21370379  0.63275369  0.21370379  1
  As  As4  1  1.00000000  0.78629621  0.41904989  1
  As  As5  1  0.00000000  0.41904989  0.78629621  1
  As  As6  1  0.63275369  0.21370379  0.21370379  1
  As  As7  1  0.36724631  0.58095011  0.58095011  1
  As  As8  1  0.21370379  0.21370379  0.63275369  1
  As  As9  1  0.58095011  0.58095011  0.36724631  1
  As  As10  1  0.78629621  0.41904989  0.00000000  1
  As  As11  1  0.41904989  0.78629621  0.00000000  1
  As  As12  1  1.00000000  0.00000000  0.66394784  1
  As  As13  1  0.66394784  0.00000000  0.00000000  1
  As  As14  1  0.33605216  0.33605216  0.33605216  1
  As  As15  1  1.00000000  0.66394784  0.00000000  1
  As  As16  1  0.00000000  0.00000000  0.00000000  1
  P  P0  1  0.15259643  0.00000000  0.37548043  1
  P  P1  1  0.37548043  0.00000000  0.15259643  1
  P  P2  1  0.62451957  0.77711600  0.62451957  1
  P  P3  1  0.84740357  0.22288400  0.84740357  1
  P  P4  1  0.00000000  0.15259643  0.37548043  1
  P  P5  1  0.00000000  0.37548043  0.15259643  1
  P  P6  1  0.22288400  0.84740357  0.84740357  1
  P  P7  1  0.77711600  0.62451957  0.62451957  1
  P  P8  1  0.84740357  0.84740357  0.22288400  1
  P  P9  1  0.62451957  0.62451957  0.77711600  1
  P  P10  1  0.15259643  0.37548043  0.00000000  1
  P  P11  1  0.37548043  0.15259643  0.00000000  1
