# generated using pymatgen
data_1614_NaNi
_symmetry_space_group_name_H-M   'P-6m2'
_cell_length_a   2.70363837
_cell_length_b   2.70357825
_cell_length_c   4.83876558
_cell_angle_alpha   90.00000000
_cell_angle_beta   90.00000000
_cell_angle_gamma   120.00072975
_chemical_formula_structural   NaNi
_chemical_formula_sum   'Na1 Ni1'
_cell_volume   30.63018122
loop_
 _symmetry_equiv_pos_site_id
 _symmetry_equiv_pos_as_xyz
  1  'x, y, z'
loop_
 _atom_type_symbol
  Na
  Ni
loop_
 _atom_site_type_symbol
 _atom_site_label
 _atom_site_symmetry_multiplicity
 _atom_site_fract_x
 _atom_site_fract_y
 _atom_site_fract_z
 _atom_site_occupancy
  Na  Na0  1  0.66666875  0.33333650  0.75000000  1
  Ni  Ni0  1  0.33333125  0.66666350  0.25000000  1
