# generated using pymatgen
data_1617_AlSr5
_symmetry_space_group_name_H-M   'Cmmm'
_cell_length_a   8.41276990
_cell_length_b   8.41276990
_cell_length_c   5.83841911
_cell_angle_alpha   90.00000000
_cell_angle_beta   90.00000000
_cell_angle_gamma   140.11563705
_chemical_formula_structural   AlSr5
_chemical_formula_sum   'Al1 Sr5'
_cell_volume   264.96838160
loop_
 _symmetry_equiv_pos_site_id
 _symmetry_equiv_pos_as_xyz
  1  'x, y, z'
loop_
 _atom_type_symbol
  Al
  Sr
loop_
 _atom_site_type_symbol
 _atom_site_label
 _atom_site_symmetry_multiplicity
 _atom_site_fract_x
 _atom_site_fract_y
 _atom_site_fract_z
 _atom_site_occupancy
  Al  Al0  1  0.97229510  0.02770490  0.00000000  1
  Sr  Sr0  1  0.81950128  0.18049872  0.50000000  1
  Sr  Sr1  1  0.61976992  0.38023008  0.00000000  1
  Sr  Sr2  1  0.47220205  0.52779795  0.50000000  1
  Sr  Sr3  1  0.32466765  0.67533235  0.00000000  1
  Sr  Sr4  1  0.12489732  0.87510268  0.50000000  1
