# generated using pymatgen
data_1622_Fe44Mo2
_symmetry_space_group_name_H-M   'Fd -3 m'
_cell_length_a   8.97822226
_cell_length_b   8.97822226
_cell_length_c   8.97822226
_cell_angle_alpha   60.00000000
_cell_angle_beta   60.00000000
_cell_angle_gamma   60.00000000
_chemical_formula_structural   Fe44Mo2
_chemical_formula_sum   'Fe44 Mo2'
_cell_volume   511.74788756
loop_
 _symmetry_equiv_pos_site_id
 _symmetry_equiv_pos_as_xyz
  1  'x, y, z'
loop_
 _atom_type_symbol
  Fe
  Mo
loop_
 _atom_site_type_symbol
 _atom_site_label
 _atom_site_symmetry_multiplicity
 _atom_site_fract_x
 _atom_site_fract_y
 _atom_site_fract_z
 _atom_site_occupancy
  Fe  Fe0  1  0.32195586  0.55749316  0.79859512  1
  Fe  Fe1  1  0.32195586  0.29859512  0.05749316  1
  Fe  Fe2  1  0.05749316  0.82195586  0.32195586  1
  Fe  Fe3  1  0.79859512  0.82195586  0.32195586  1
  Fe  Fe4  1  0.32195586  0.55749316  0.32195586  1
  Fe  Fe5  1  0.32195586  0.29859512  0.32195586  1
  Fe  Fe6  1  0.79859512  0.82195586  0.05749316  1
  Fe  Fe7  1  0.05749316  0.82195586  0.79859512  1
  Fe  Fe8  1  0.79859512  0.55749316  0.32195586  1
  Fe  Fe9  1  0.05749316  0.29859512  0.32195586  1
  Fe  Fe10  1  0.32195586  0.82195586  0.79859512  1
  Fe  Fe11  1  0.32195586  0.82195586  0.05749316  1
  Fe  Fe12  1  0.67804414  0.70140488  0.94250684  1
  Fe  Fe13  1  0.67804414  0.44250684  0.20140488  1
  Fe  Fe14  1  0.94250684  0.17804414  0.67804414  1
  Fe  Fe15  1  0.20140488  0.17804414  0.67804414  1
  Fe  Fe16  1  0.67804414  0.17804414  0.94250684  1
  Fe  Fe17  1  0.67804414  0.17804414  0.20140488  1
  Fe  Fe18  1  0.20140488  0.44250684  0.67804414  1
  Fe  Fe19  1  0.94250684  0.70140488  0.67804414  1
  Fe  Fe20  1  0.20140488  0.17804414  0.94250684  1
  Fe  Fe21  1  0.94250684  0.17804414  0.20140488  1
  Fe  Fe22  1  0.67804414  0.70140488  0.67804414  1
  Fe  Fe23  1  0.67804414  0.44250684  0.67804414  1
  Fe  Fe24  1  0.48931976  0.26068024  0.48931976  1
  Fe  Fe25  1  0.76068024  0.98931976  0.76068024  1
  Fe  Fe26  1  0.76068024  0.26068024  0.48931976  1
  Fe  Fe27  1  0.48931976  0.98931976  0.76068024  1
  Fe  Fe28  1  0.48931976  0.26068024  0.76068024  1
  Fe  Fe29  1  0.76068024  0.98931976  0.48931976  1
  Fe  Fe30  1  0.51068024  0.01068024  0.23931976  1
  Fe  Fe31  1  0.23931976  0.73931976  0.51068024  1
  Fe  Fe32  1  0.23931976  0.01068024  0.23931976  1
  Fe  Fe33  1  0.51068024  0.73931976  0.51068024  1
  Fe  Fe34  1  0.51068024  0.73931976  0.23931976  1
  Fe  Fe35  1  0.23931976  0.01068024  0.51068024  1
  Fe  Fe36  1  0.00000000  0.00000000  0.00000000  1
  Fe  Fe37  1  0.00000000  0.50000000  0.50000000  1
  Fe  Fe38  1  0.50000000  0.50000000  0.00000000  1
  Fe  Fe39  1  0.00000000  0.50000000  0.00000000  1
  Fe  Fe40  1  0.50000000  0.50000000  0.50000000  1
  Fe  Fe41  1  0.50000000  0.00000000  0.00000000  1
  Fe  Fe42  1  0.00000000  0.00000000  0.50000000  1
  Fe  Fe43  1  0.50000000  0.00000000  0.50000000  1
  Mo  Mo0  1  0.12500000  0.62500000  0.12500000  1
  Mo  Mo1  1  0.87500000  0.37500000  0.87500000  1
