# generated using pymatgen
data_1626_Ir6Na2
_symmetry_space_group_name_H-M   'Pmmn'
_cell_length_a   4.49932603
_cell_length_b   4.79686147
_cell_length_c   5.58884173
_cell_angle_alpha   90.00000000
_cell_angle_beta   90.00000000
_cell_angle_gamma   90.00000000
_chemical_formula_structural   Ir6Na2
_chemical_formula_sum   'Ir6 Na2'
_cell_volume   120.62197961
loop_
 _symmetry_equiv_pos_site_id
 _symmetry_equiv_pos_as_xyz
  1  'x, y, z'
loop_
 _atom_type_symbol
  Ir
  Na
loop_
 _atom_site_type_symbol
 _atom_site_label
 _atom_site_symmetry_multiplicity
 _atom_site_fract_x
 _atom_site_fract_y
 _atom_site_fract_z
 _atom_site_occupancy
  Ir  Ir0  1  0.50000000  0.67064655  0.00000000  1
  Ir  Ir1  1  0.00000000  0.32935345  0.50000000  1
  Ir  Ir2  1  0.00000000  0.84464183  0.25893062  1
  Ir  Ir3  1  0.00000000  0.84464183  0.74106938  1
  Ir  Ir4  1  0.50000000  0.15535817  0.75893062  1
  Ir  Ir5  1  0.50000000  0.15535817  0.24106938  1
  Na  Na0  1  0.00000000  0.34651112  0.00000000  1
  Na  Na1  1  0.50000000  0.65348888  0.50000000  1
