# generated using pymatgen
data_1632_InBr3
_symmetry_space_group_name_H-M   'Immm'
_cell_length_a   6.75166867
_cell_length_b   6.75166867
_cell_length_c   5.78695482
_cell_angle_alpha   64.65103023
_cell_angle_beta   64.65103023
_cell_angle_gamma   31.60438247
_chemical_formula_structural   InBr3
_chemical_formula_sum   'Br3 In1'
_cell_volume   123.80533499
loop_
 _symmetry_equiv_pos_site_id
 _symmetry_equiv_pos_as_xyz
  1  'x, y, z'
loop_
 _atom_type_symbol
  Br
  In
loop_
 _atom_site_type_symbol
 _atom_site_label
 _atom_site_symmetry_multiplicity
 _atom_site_fract_x
 _atom_site_fract_y
 _atom_site_fract_z
 _atom_site_occupancy
  Br  Br0  1  0.50000000  0.50000000  0.50000000  1
  Br  Br1  1  0.67011596  0.67011596  0.82828998  1
  Br  Br2  1  0.32988404  0.32988404  0.17171002  1
  In  In0  1  0.00000000  0.00000000  0.00000000  1
