# generated using pymatgen
data_1636_NiP3
_symmetry_space_group_name_H-M   'I4/mmm'
_cell_length_a   4.24082450
_cell_length_b   4.24082450
_cell_length_c   4.24082450
_cell_angle_alpha   121.98041939
_cell_angle_beta   121.98041939
_cell_angle_gamma   86.60272871
_chemical_formula_structural   NiP3
_chemical_formula_sum   'Ni1 P3'
_cell_volume   52.21642062
loop_
 _symmetry_equiv_pos_site_id
 _symmetry_equiv_pos_as_xyz
  1  'x, y, z'
loop_
 _atom_type_symbol
  Ni
  P
loop_
 _atom_site_type_symbol
 _atom_site_label
 _atom_site_symmetry_multiplicity
 _atom_site_fract_x
 _atom_site_fract_y
 _atom_site_fract_z
 _atom_site_occupancy
  Ni  Ni0  1  0.00000000  0.00000000  0.00000000  1
  P  P0  1  0.25000000  0.75000000  0.50000000  1
  P  P1  1  0.50000000  0.50000000  0.00000000  1
  P  P2  1  0.75000000  0.25000000  0.50000000  1
