# generated using pymatgen
data_1641_Pb2As2
_symmetry_space_group_name_H-M   'Imma'
_cell_length_a   6.22088088
_cell_length_b   6.22088088
_cell_length_c   6.22088088
_cell_angle_alpha   145.84161936
_cell_angle_beta   128.66484240
_cell_angle_gamma   63.11171844
_chemical_formula_structural   Pb2As2
_chemical_formula_sum   'As2 Pb2'
_cell_volume   104.38857670
loop_
 _symmetry_equiv_pos_site_id
 _symmetry_equiv_pos_as_xyz
  1  'x, y, z'
loop_
 _atom_type_symbol
  As
  Pb
loop_
 _atom_site_type_symbol
 _atom_site_label
 _atom_site_symmetry_multiplicity
 _atom_site_fract_x
 _atom_site_fract_y
 _atom_site_fract_z
 _atom_site_occupancy
  As  As0  1  0.96083825  0.96083825  0.00000000  1
  As  As1  1  0.78916175  0.28916175  0.50000000  1
  Pb  Pb0  1  0.51609811  0.51609811  1.00000000  1
  Pb  Pb1  1  0.23390189  0.73390189  0.50000000  1
