# generated using pymatgen
data_1643_Ca3Ni
_symmetry_space_group_name_H-M   'Fm -3 m'
_cell_length_a   5.45092354
_cell_length_b   5.45092354
_cell_length_c   5.45092354
_cell_angle_alpha   60.00000000
_cell_angle_beta   60.00000000
_cell_angle_gamma   60.00000000
_chemical_formula_structural   Ca3Ni
_chemical_formula_sum   'Ca3 Ni1'
_cell_volume   114.52367432
loop_
 _symmetry_equiv_pos_site_id
 _symmetry_equiv_pos_as_xyz
  1  'x, y, z'
loop_
 _atom_type_symbol
  Ca
  Ni
loop_
 _atom_site_type_symbol
 _atom_site_label
 _atom_site_symmetry_multiplicity
 _atom_site_fract_x
 _atom_site_fract_y
 _atom_site_fract_z
 _atom_site_occupancy
  Ca  Ca0  1  0.00000000  0.00000000  0.00000000  1
  Ca  Ca1  1  0.25000099  0.25000099  0.25000099  1
  Ca  Ca2  1  0.49999938  0.49999938  0.49999938  1
  Ni  Ni0  1  0.75000036  0.75000036  0.75000036  1
