# generated using pymatgen
data_1644_FeV3
_symmetry_space_group_name_H-M   'Immm'
_cell_length_a   4.09168471
_cell_length_b   4.87018960
_cell_length_c   2.91173866
_cell_angle_alpha   72.60636185
_cell_angle_beta   90.00000000
_cell_angle_gamma   114.83928977
_chemical_formula_structural   FeV3
_chemical_formula_sum   'Fe1 V3'
_cell_volume   49.71647582
loop_
 _symmetry_equiv_pos_site_id
 _symmetry_equiv_pos_as_xyz
  1  'x, y, z'
loop_
 _atom_type_symbol
  Fe
  V
loop_
 _atom_site_type_symbol
 _atom_site_label
 _atom_site_symmetry_multiplicity
 _atom_site_fract_x
 _atom_site_fract_y
 _atom_site_fract_z
 _atom_site_occupancy
  Fe  Fe0  1  0.91640739  0.00000000  0.00000000  1
  V  V0  1  0.16343569  0.49345530  0.25327235  1
  V  V1  1  0.41684320  0.00000000  0.50000000  1
  V  V2  1  0.66998039  0.50654470  0.74672765  1
