# generated using pymatgen
data_1646_AuP
_symmetry_space_group_name_H-M   'Immm'
_cell_length_a   3.62364030
_cell_length_b   5.22146128
_cell_length_c   3.76905335
_cell_angle_alpha   90.00000000
_cell_angle_beta   90.00000000
_cell_angle_gamma   90.00000000
_chemical_formula_structural   AuP
_chemical_formula_sum   'Au2 P2'
_cell_volume   71.31311837
loop_
 _symmetry_equiv_pos_site_id
 _symmetry_equiv_pos_as_xyz
  1  'x, y, z'
loop_
 _atom_type_symbol
  Au
  P
loop_
 _atom_site_type_symbol
 _atom_site_label
 _atom_site_symmetry_multiplicity
 _atom_site_fract_x
 _atom_site_fract_y
 _atom_site_fract_z
 _atom_site_occupancy
  Au  Au0  1  0.00000000  0.00000000  0.16421773  1
  Au  Au1  1  0.50000000  0.50000000  0.66911560  1
  P  P0  1  0.50000000  0.00000000  0.66425000  1
  P  P1  1  0.00000000  0.50000000  0.16908333  1
