# generated using pymatgen
data_1647_PbSb
_symmetry_space_group_name_H-M   'Cmmm'
_cell_length_a   3.34646587
_cell_length_b   3.34646587
_cell_length_c   5.48115374
_cell_angle_alpha   90.00000000
_cell_angle_beta   90.00000000
_cell_angle_gamma   104.51848022
_chemical_formula_structural   PbSb
_chemical_formula_sum   'Pb1 Sb1'
_cell_volume   59.42239112
loop_
 _symmetry_equiv_pos_site_id
 _symmetry_equiv_pos_as_xyz
  1  'x, y, z'
loop_
 _atom_type_symbol
  Pb
  Sb
loop_
 _atom_site_type_symbol
 _atom_site_label
 _atom_site_symmetry_multiplicity
 _atom_site_fract_x
 _atom_site_fract_y
 _atom_site_fract_z
 _atom_site_occupancy
  Pb  Pb0  1  0.00000000  0.00000000  0.00000000  1
  Sb  Sb0  1  0.50000000  0.50000000  0.50000000  1
