# generated using pymatgen
data_1649_Ag14Yb4
_symmetry_space_group_name_H-M   'Cmcm'
_cell_length_a   5.45914113
_cell_length_b   5.45914113
_cell_length_c   14.08015900
_cell_angle_alpha   90.00000000
_cell_angle_beta   90.00000000
_cell_angle_gamma   60.47895202
_chemical_formula_structural   Ag14Yb4
_chemical_formula_sum   'Ag14 Yb4'
_cell_volume   365.14274444
loop_
 _symmetry_equiv_pos_site_id
 _symmetry_equiv_pos_as_xyz
  1  'x, y, z'
loop_
 _atom_type_symbol
  Ag
  Yb
loop_
 _atom_site_type_symbol
 _atom_site_label
 _atom_site_symmetry_multiplicity
 _atom_site_fract_x
 _atom_site_fract_y
 _atom_site_fract_z
 _atom_site_occupancy
  Ag  Ag0  1  0.51481035  0.16184864  0.07511705  1
  Ag  Ag1  1  0.83815142  0.48518971  0.07511705  1
  Ag  Ag2  1  0.17360152  0.32471234  0.25000003  1
  Ag  Ag3  1  0.67414340  0.32585560  0.25000003  1
  Ag  Ag4  1  0.67528772  0.82639854  0.25000003  1
  Ag  Ag5  1  0.51481035  0.16184864  0.42488300  1
  Ag  Ag6  1  0.83815142  0.48518971  0.42488300  1
  Ag  Ag7  1  0.16184864  0.51481035  0.57511710  1
  Ag  Ag8  1  0.48518971  0.83815142  0.57511710  1
  Ag  Ag9  1  0.32471234  0.17360152  0.75000008  1
  Ag  Ag10  1  0.32585560  0.67414340  0.75000008  1
  Ag  Ag11  1  0.82639854  0.67528772  0.75000008  1
  Ag  Ag12  1  0.16184864  0.51481035  0.92488305  1
  Ag  Ag13  1  0.48518971  0.83815142  0.92488305  1
  Yb  Yb0  1  0.18053896  0.81946004  0.11604983  1
  Yb  Yb1  1  0.18053896  0.81946004  0.38395022  1
  Yb  Yb2  1  0.81946004  0.18053896  0.61604988  1
  Yb  Yb3  1  0.81946004  0.18053896  0.88395027  1
