# generated using pymatgen
data_1650_Eu3As
_symmetry_space_group_name_H-M   'I4/mmm'
_cell_length_a   6.25466314
_cell_length_b   6.25466314
_cell_length_c   6.25466314
_cell_angle_alpha   136.18491697
_cell_angle_beta   136.18491697
_cell_angle_gamma   63.69457992
_chemical_formula_structural   Eu3As
_chemical_formula_sum   'As1 Eu3'
_cell_volume   115.74092881
loop_
 _symmetry_equiv_pos_site_id
 _symmetry_equiv_pos_as_xyz
  1  'x, y, z'
loop_
 _atom_type_symbol
  As
  Eu
loop_
 _atom_site_type_symbol
 _atom_site_label
 _atom_site_symmetry_multiplicity
 _atom_site_fract_x
 _atom_site_fract_y
 _atom_site_fract_z
 _atom_site_occupancy
  As  As0  1  0.00000000  0.00000000  0.00000000  1
  Eu  Eu0  1  0.50000000  0.50000000  0.00000000  1
  Eu  Eu1  1  0.75000000  0.25000000  0.50000000  1
  Eu  Eu2  1  0.25000000  0.75000000  0.50000000  1
