# generated using pymatgen
data_1652_Ta2Ge4
_symmetry_space_group_name_H-M   'I4_1/amd'
_cell_length_a   10.73618573
_cell_length_b   10.73618573
_cell_length_c   10.73618573
_cell_angle_alpha   162.39564070
_cell_angle_beta   162.39564070
_cell_angle_gamma   24.99626714
_chemical_formula_structural   Ta2Ge4
_chemical_formula_sum   'Ge4 Ta2'
_cell_volume   113.16459032
loop_
 _symmetry_equiv_pos_site_id
 _symmetry_equiv_pos_as_xyz
  1  'x, y, z'
loop_
 _atom_type_symbol
  Ge
  Ta
loop_
 _atom_site_type_symbol
 _atom_site_label
 _atom_site_symmetry_multiplicity
 _atom_site_fract_x
 _atom_site_fract_y
 _atom_site_fract_z
 _atom_site_occupancy
  Ge  Ge0  1  0.57012717  0.57012717  0.00000000  1
  Ge  Ge1  1  0.67987283  0.17987283  0.50000000  1
  Ge  Ge2  1  0.42987283  0.42987283  0.00000000  1
  Ge  Ge3  1  0.82012717  0.32012717  0.50000000  1
  Ta  Ta0  1  0.00000000  0.00000000  0.00000000  1
  Ta  Ta1  1  0.25000000  0.75000000  0.50000000  1
