# generated using pymatgen
data_1653_AlNb
_symmetry_space_group_name_H-M   'P-6m2'
_cell_length_a   2.94479020
_cell_length_b   2.94476874
_cell_length_c   4.63655827
_cell_angle_alpha   90.00000000
_cell_angle_beta   90.00000000
_cell_angle_gamma   120.00022938
_chemical_formula_structural   AlNb
_chemical_formula_sum   'Al1 Nb1'
_cell_volume   34.82017134
loop_
 _symmetry_equiv_pos_site_id
 _symmetry_equiv_pos_as_xyz
  1  'x, y, z'
loop_
 _atom_type_symbol
  Al
  Nb
loop_
 _atom_site_type_symbol
 _atom_site_label
 _atom_site_symmetry_multiplicity
 _atom_site_fract_x
 _atom_site_fract_y
 _atom_site_fract_z
 _atom_site_occupancy
  Al  Al0  1  0.66666758  0.33333416  0.75000000  1
  Nb  Nb0  1  0.33333242  0.66666584  0.25000000  1
