# generated using pymatgen
data_1654_RbTh
_symmetry_space_group_name_H-M   'P-6m2'
_cell_length_a   3.58251830
_cell_length_b   3.58251927
_cell_length_c   7.62524689
_cell_angle_alpha   90.00000000
_cell_angle_beta   90.00000000
_cell_angle_gamma   119.99998200
_chemical_formula_structural   RbTh
_chemical_formula_sum   'Rb1 Th1'
_cell_volume   84.75426713
loop_
 _symmetry_equiv_pos_site_id
 _symmetry_equiv_pos_as_xyz
  1  'x, y, z'
loop_
 _atom_type_symbol
  Rb
  Th
loop_
 _atom_site_type_symbol
 _atom_site_label
 _atom_site_symmetry_multiplicity
 _atom_site_fract_x
 _atom_site_fract_y
 _atom_site_fract_z
 _atom_site_occupancy
  Rb  Rb0  1  0.66666454  0.33332766  0.75000050  1
  Th  Th0  1  0.33333735  0.66667470  0.24999973  1
