# generated using pymatgen
data_1655_WAs2
_symmetry_space_group_name_H-M   'I4/mmm'
_cell_length_a   6.12219786
_cell_length_b   6.12219786
_cell_length_c   6.12219786
_cell_angle_alpha   150.40549122
_cell_angle_beta   150.40549122
_cell_angle_gamma   42.34651017
_chemical_formula_structural   WAs2
_chemical_formula_sum   'As2 W1'
_cell_volume   55.82995310
loop_
 _symmetry_equiv_pos_site_id
 _symmetry_equiv_pos_as_xyz
  1  'x, y, z'
loop_
 _atom_type_symbol
  As
  W
loop_
 _atom_site_type_symbol
 _atom_site_label
 _atom_site_symmetry_multiplicity
 _atom_site_fract_x
 _atom_site_fract_y
 _atom_site_fract_z
 _atom_site_occupancy
  As  As0  1  0.63277282  0.63277282  0.00000000  1
  As  As1  1  0.36722718  0.36722718  0.00000000  1
  W  W0  1  0.00000000  0.00000000  0.00000000  1
