# generated using pymatgen
data_1658_Ni17Br12
_symmetry_space_group_name_H-M   'I-43m'
_cell_length_a   8.73250167
_cell_length_b   8.73250167
_cell_length_c   8.73250167
_cell_angle_alpha   109.47122063
_cell_angle_beta   109.47122063
_cell_angle_gamma   109.47122063
_chemical_formula_structural   Ni17Br12
_chemical_formula_sum   'Br12 Ni17'
_cell_volume   512.61834171
loop_
 _symmetry_equiv_pos_site_id
 _symmetry_equiv_pos_as_xyz
  1  'x, y, z'
loop_
 _atom_type_symbol
  Br
  Ni
loop_
 _atom_site_type_symbol
 _atom_site_label
 _atom_site_symmetry_multiplicity
 _atom_site_fract_x
 _atom_site_fract_y
 _atom_site_fract_z
 _atom_site_occupancy
  Br  Br0  1  0.24887642  0.00000000  0.49020458  1
  Br  Br1  1  0.49020458  0.00000000  0.24887642  1
  Br  Br2  1  0.50979542  0.75867184  0.50979542  1
  Br  Br3  1  0.75112358  0.24132816  0.75112358  1
  Br  Br4  1  1.00000000  0.24887642  0.49020458  1
  Br  Br5  1  1.00000000  0.49020458  0.24887642  1
  Br  Br6  1  0.24132816  0.75112358  0.75112358  1
  Br  Br7  1  0.75867184  0.50979542  0.50979542  1
  Br  Br8  1  0.75112358  0.75112358  0.24132816  1
  Br  Br9  1  0.50979542  0.50979542  0.75867184  1
  Br  Br10  1  0.24887642  0.49020458  0.00000000  1
  Br  Br11  1  0.49020458  0.24887642  0.00000000  1
  Ni  Ni0  1  0.76719889  0.00000000  0.50329971  1
  Ni  Ni1  1  0.50329971  0.00000000  0.76719889  1
  Ni  Ni2  1  0.49670029  0.26389918  0.49670029  1
  Ni  Ni3  1  0.23280111  0.73610082  0.23280111  1
  Ni  Ni4  1  1.00000000  0.76719889  0.50329971  1
  Ni  Ni5  1  1.00000000  0.50329971  0.76719889  1
  Ni  Ni6  1  0.73610082  0.23280111  0.23280111  1
  Ni  Ni7  1  0.26389918  0.49670029  0.49670029  1
  Ni  Ni8  1  0.23280111  0.23280111  0.73610082  1
  Ni  Ni9  1  0.49670029  0.49670029  0.26389918  1
  Ni  Ni10  1  0.76719889  0.50329971  0.00000000  1
  Ni  Ni11  1  0.50329971  0.76719889  0.00000000  1
  Ni  Ni12  1  1.00000000  0.00000000  0.73979659  1
  Ni  Ni13  1  0.73979659  0.00000000  0.00000000  1
  Ni  Ni14  1  0.26020341  0.26020341  0.26020341  1
  Ni  Ni15  1  1.00000000  0.73979659  0.00000000  1
  Ni  Ni16  1  0.00000000  0.00000000  0.00000000  1
