# generated using pymatgen
data_1662_TaGe5
_symmetry_space_group_name_H-M   'Cmmm'
_cell_length_a   7.75844649
_cell_length_b   7.75844649
_cell_length_c   3.82334140
_cell_angle_alpha   90.00000000
_cell_angle_beta   90.00000000
_cell_angle_gamma   151.08847987
_chemical_formula_structural   TaGe5
_chemical_formula_sum   'Ge5 Ta1'
_cell_volume   111.26324622
loop_
 _symmetry_equiv_pos_site_id
 _symmetry_equiv_pos_as_xyz
  1  'x, y, z'
loop_
 _atom_type_symbol
  Ge
  Ta
loop_
 _atom_site_type_symbol
 _atom_site_label
 _atom_site_symmetry_multiplicity
 _atom_site_fract_x
 _atom_site_fract_y
 _atom_site_fract_z
 _atom_site_occupancy
  Ge  Ge0  1  0.81170440  0.18829560  0.50000000  1
  Ge  Ge1  1  0.62528105  0.37471895  0.00000000  1
  Ge  Ge2  1  0.47217055  0.52782945  0.50000000  1
  Ge  Ge3  1  0.31951610  0.68048390  0.00000000  1
  Ge  Ge4  1  0.13234826  0.86765174  0.50000000  1
  Ta  Ta0  1  0.97231298  0.02768702  0.00000000  1
