# generated using pymatgen
data_1663_TaGe3
_symmetry_space_group_name_H-M   'Immm'
_cell_length_a   5.10738040
_cell_length_b   5.10738040
_cell_length_c   5.10738040
_cell_angle_alpha   140.24259503
_cell_angle_beta   125.41811279
_cell_angle_gamma   69.61675080
_chemical_formula_structural   TaGe3
_chemical_formula_sum   'Ge3 Ta1'
_cell_volume   68.21780723
loop_
 _symmetry_equiv_pos_site_id
 _symmetry_equiv_pos_as_xyz
  1  'x, y, z'
loop_
 _atom_type_symbol
  Ge
  Ta
loop_
 _atom_site_type_symbol
 _atom_site_label
 _atom_site_symmetry_multiplicity
 _atom_site_fract_x
 _atom_site_fract_y
 _atom_site_fract_z
 _atom_site_occupancy
  Ge  Ge0  1  0.24250002  0.24250002  0.00000000  1
  Ge  Ge1  1  0.75749998  0.75749998  0.00000000  1
  Ge  Ge2  1  0.00000000  0.50000000  0.50000000  1
  Ta  Ta0  1  0.50000000  0.00000000  0.50000000  1
