# generated using pymatgen
data_1668_Ba6As2
_symmetry_space_group_name_H-M   'I4/mmm'
_cell_length_a   13.56225545
_cell_length_b   13.56225545
_cell_length_c   13.56225545
_cell_angle_alpha   157.73381345
_cell_angle_beta   157.73381345
_cell_angle_gamma   31.69390630
_chemical_formula_structural   Ba6As2
_chemical_formula_sum   'As2 Ba6'
_cell_volume   357.88388913
loop_
 _symmetry_equiv_pos_site_id
 _symmetry_equiv_pos_as_xyz
  1  'x, y, z'
loop_
 _atom_type_symbol
  As
  Ba
loop_
 _atom_site_type_symbol
 _atom_site_label
 _atom_site_symmetry_multiplicity
 _atom_site_fract_x
 _atom_site_fract_y
 _atom_site_fract_z
 _atom_site_occupancy
  As  As0  1  0.40849473  0.40849473  0.00000000  1
  As  As1  1  0.59150527  0.59150527  0.00000000  1
  Ba  Ba0  1  0.00000000  0.50000000  0.50000000  1
  Ba  Ba1  1  0.50000000  0.00000000  0.50000000  1
  Ba  Ba2  1  0.25000000  0.75000000  0.50000000  1
  Ba  Ba3  1  0.75000000  0.25000000  0.50000000  1
  Ba  Ba4  1  0.11896625  0.11896625  0.00000000  1
  Ba  Ba5  1  0.88103375  0.88103375  0.00000000  1
