# generated using pymatgen
data_1669_NiPa
_symmetry_space_group_name_H-M   'P-6m2'
_cell_length_a   3.19039163
_cell_length_b   3.19040829
_cell_length_c   4.17910203
_cell_angle_alpha   90.00000000
_cell_angle_beta   90.00000000
_cell_angle_gamma   119.99982716
_chemical_formula_structural   NiPa
_chemical_formula_sum   'Ni1 Pa1'
_cell_volume   36.83872789
loop_
 _symmetry_equiv_pos_site_id
 _symmetry_equiv_pos_as_xyz
  1  'x, y, z'
loop_
 _atom_type_symbol
  Ni
  Pa
loop_
 _atom_site_type_symbol
 _atom_site_label
 _atom_site_symmetry_multiplicity
 _atom_site_fract_x
 _atom_site_fract_y
 _atom_site_fract_z
 _atom_site_occupancy
  Ni  Ni0  1  0.66666903  0.33333706  0.75000000  1
  Pa  Pa0  1  0.33333097  0.66666294  0.25000000  1
