# generated using pymatgen
data_1670_InBr3
_symmetry_space_group_name_H-M   'Immm'
_cell_length_a   6.75618224
_cell_length_b   6.75618224
_cell_length_c   5.78608614
_cell_angle_alpha   64.55103540
_cell_angle_beta   64.55103540
_cell_angle_gamma   31.52016720
_chemical_formula_structural   InBr3
_chemical_formula_sum   'Br3 In1'
_cell_volume   123.54981450
loop_
 _symmetry_equiv_pos_site_id
 _symmetry_equiv_pos_as_xyz
  1  'x, y, z'
loop_
 _atom_type_symbol
  Br
  In
loop_
 _atom_site_type_symbol
 _atom_site_label
 _atom_site_symmetry_multiplicity
 _atom_site_fract_x
 _atom_site_fract_y
 _atom_site_fract_z
 _atom_site_occupancy
  Br  Br0  1  0.50000000  0.50000000  0.50000000  1
  Br  Br1  1  0.66996423  0.66996423  0.82872318  1
  Br  Br2  1  0.33003577  0.33003577  0.17127682  1
  In  In0  1  0.00000000  0.00000000  0.00000000  1
