# generated using pymatgen
data_1671_Al2In4
_symmetry_space_group_name_H-M   'Cmcm'
_cell_length_a   5.92541621
_cell_length_b   5.92541621
_cell_length_c   5.17189488
_cell_angle_alpha   90.00000000
_cell_angle_beta   90.00000000
_cell_angle_gamma   127.60947528
_chemical_formula_structural   Al2In4
_chemical_formula_sum   'Al2 In4'
_cell_volume   143.85205532
loop_
 _symmetry_equiv_pos_site_id
 _symmetry_equiv_pos_as_xyz
  1  'x, y, z'
loop_
 _atom_type_symbol
  Al
  In
loop_
 _atom_site_type_symbol
 _atom_site_label
 _atom_site_symmetry_multiplicity
 _atom_site_fract_x
 _atom_site_fract_y
 _atom_site_fract_z
 _atom_site_occupancy
  Al  Al0  1  0.20300981  0.20300981  0.25000000  1
  Al  Al1  1  0.79699019  0.79699019  0.75000000  1
  In  In0  1  0.56004349  0.87325061  0.25000000  1
  In  In1  1  0.43995651  0.12674939  0.75000000  1
  In  In2  1  0.87325061  0.56004349  0.25000000  1
  In  In3  1  0.12674939  0.43995651  0.75000000  1
