# generated using pymatgen
data_1674_Pb2As4
_symmetry_space_group_name_H-M   'Cmcm'
_cell_length_a   8.42176931
_cell_length_b   8.42176931
_cell_length_c   5.41519378
_cell_angle_alpha   90.00000000
_cell_angle_beta   90.00000000
_cell_angle_gamma   155.44895283
_chemical_formula_structural   Pb2As4
_chemical_formula_sum   'As4 Pb2'
_cell_volume   159.58632887
loop_
 _symmetry_equiv_pos_site_id
 _symmetry_equiv_pos_as_xyz
  1  'x, y, z'
loop_
 _atom_type_symbol
  As
  Pb
loop_
 _atom_site_type_symbol
 _atom_site_label
 _atom_site_symmetry_multiplicity
 _atom_site_fract_x
 _atom_site_fract_y
 _atom_site_fract_z
 _atom_site_occupancy
  As  As0  1  0.00144689  0.99855311  0.00000000  1
  As  As1  1  0.39724785  0.60275215  0.00000000  1
  As  As2  1  0.38052993  0.61947007  0.50000000  1
  As  As3  1  0.77633088  0.22366912  0.50000000  1
  Pb  Pb0  1  0.69696324  0.30303676  0.00000000  1
  Pb  Pb1  1  0.08081454  0.91918546  0.50000000  1
