# generated using pymatgen
data_1675_AgBr2
_symmetry_space_group_name_H-M   'Immm'
_cell_length_a   7.90166818
_cell_length_b   7.90166818
_cell_length_c   7.90166818
_cell_angle_alpha   151.57508728
_cell_angle_beta   158.64232853
_cell_angle_gamma   35.82908171
_chemical_formula_structural   AgBr2
_chemical_formula_sum   'Ag1 Br2'
_cell_volume   85.42798404
loop_
 _symmetry_equiv_pos_site_id
 _symmetry_equiv_pos_as_xyz
  1  'x, y, z'
loop_
 _atom_type_symbol
  Ag
  Br
loop_
 _atom_site_type_symbol
 _atom_site_label
 _atom_site_symmetry_multiplicity
 _atom_site_fract_x
 _atom_site_fract_y
 _atom_site_fract_z
 _atom_site_occupancy
  Ag  Ag0  1  0.00000000  0.00000000  0.00000000  1
  Br  Br0  1  0.62399049  0.62399049  0.00000000  1
  Br  Br1  1  0.37600951  0.37600951  1.00000000  1
