# generated using pymatgen
data_1676_Sb4Br12
_symmetry_space_group_name_H-M   'Pnma'
_cell_length_a   7.17013784
_cell_length_b   8.74564778
_cell_length_c   10.34172007
_cell_angle_alpha   90.00000000
_cell_angle_beta   90.00000000
_cell_angle_gamma   90.00000000
_chemical_formula_structural   Sb4Br12
_chemical_formula_sum   'Br12 Sb4'
_cell_volume   648.50341214
loop_
 _symmetry_equiv_pos_site_id
 _symmetry_equiv_pos_as_xyz
  1  'x, y, z'
loop_
 _atom_type_symbol
  Br
  Sb
loop_
 _atom_site_type_symbol
 _atom_site_label
 _atom_site_symmetry_multiplicity
 _atom_site_fract_x
 _atom_site_fract_y
 _atom_site_fract_z
 _atom_site_occupancy
  Sb  Sb0  1  0.47812367  0.50110121  0.25000000  1
  Sb  Sb1  1  0.97812367  0.99889879  0.75000000  1
  Sb  Sb2  1  0.52187633  0.49889879  0.75000000  1
  Sb  Sb3  1  0.02187633  0.00110121  0.25000000  1
  Br  Br0  1  0.63867121  0.32065891  0.92929877  1
  Br  Br1  1  0.67883244  0.07743375  0.25000000  1
  Br  Br2  1  0.13867121  0.17934109  0.07070123  1
  Br  Br3  1  0.13867121  0.17934109  0.42929877  1
  Br  Br4  1  0.17883244  0.42256625  0.75000000  1
  Br  Br5  1  0.32116756  0.92256625  0.75000000  1
  Br  Br6  1  0.36132879  0.67934109  0.07070123  1
  Br  Br7  1  0.86132879  0.82065891  0.92929877  1
  Br  Br8  1  0.36132879  0.67934109  0.42929877  1
  Br  Br9  1  0.86132879  0.82065891  0.57070123  1
  Br  Br10  1  0.63867121  0.32065891  0.57070123  1
  Br  Br11  1  0.82116756  0.57743375  0.25000000  1
