# generated using pymatgen
data_1677_Fe8Ir
_symmetry_space_group_name_H-M   'I4/mmm'
_cell_length_a   3.59363966
_cell_length_b   5.62732135
_cell_length_c   5.62732135
_cell_angle_alpha   95.85172004
_cell_angle_beta   108.62077037
_cell_angle_gamma   71.37922963
_chemical_formula_structural   Fe8Ir
_chemical_formula_sum   'Fe8 Ir1'
_cell_volume   102.19658610
loop_
 _symmetry_equiv_pos_site_id
 _symmetry_equiv_pos_as_xyz
  1  'x, y, z'
loop_
 _atom_type_symbol
  Fe
  Ir
loop_
 _atom_site_type_symbol
 _atom_site_label
 _atom_site_symmetry_multiplicity
 _atom_site_fract_x
 _atom_site_fract_y
 _atom_site_fract_z
 _atom_site_occupancy
  Fe  Fe0  1  0.67003443  0.00000000  0.34006885  1
  Fe  Fe1  1  0.32996557  0.00000000  0.65993115  1
  Fe  Fe2  1  0.00000000  0.33891959  0.33891959  1
  Fe  Fe3  1  0.32996557  0.34006885  0.00000000  1
  Fe  Fe4  1  0.66108041  0.33891959  0.66108041  1
  Fe  Fe5  1  0.67003443  0.65993115  0.00000000  1
  Fe  Fe6  1  0.00000000  0.66108041  0.66108041  1
  Fe  Fe7  1  0.33891959  0.66108041  0.33891959  1
  Ir  Ir0  1  0.00000000  0.00000000  0.00000000  1
