# generated using pymatgen
data_1685_Al5Rh7
_symmetry_space_group_name_H-M   'Fmmm'
_cell_length_a   4.66609680
_cell_length_b   8.58754912
_cell_length_c   4.66609679
_cell_angle_alpha   100.79929592
_cell_angle_beta   108.03402259
_cell_angle_gamma   100.79929603
_chemical_formula_structural   Al5Rh7
_chemical_formula_sum   'Al5 Rh7'
_cell_volume   168.50401212
loop_
 _symmetry_equiv_pos_site_id
 _symmetry_equiv_pos_as_xyz
  1  'x, y, z'
loop_
 _atom_type_symbol
  Al
  Rh
loop_
 _atom_site_type_symbol
 _atom_site_label
 _atom_site_symmetry_multiplicity
 _atom_site_fract_x
 _atom_site_fract_y
 _atom_site_fract_z
 _atom_site_occupancy
  Al  Al0  1  0.99991282  1.00000000  0.00008718  1
  Al  Al1  1  0.59141313  0.18278417  0.09141313  1
  Al  Al2  1  0.75000000  0.50000000  0.25000000  1
  Al  Al3  1  0.90858687  0.81721583  0.40858687  1
  Al  Al4  1  0.50008718  1.00000000  0.49991282  1
  Rh  Rh0  1  0.16338355  0.32672267  0.16345060  1
  Rh  Rh1  1  0.33661645  0.67327733  0.33654940  1
  Rh  Rh2  1  0.06504250  0.12958016  0.56504250  1
  Rh  Rh3  1  0.66345060  0.32672267  0.66338355  1
  Rh  Rh4  1  0.25000000  0.50000000  0.75000000  1
  Rh  Rh5  1  0.83654940  0.67327733  0.83661645  1
  Rh  Rh6  1  0.43495750  0.87041984  0.93495750  1
