# generated using pymatgen
data_1686_Ca3Ga8
_symmetry_space_group_name_H-M   'Immm'
_cell_length_a   13.18780604
_cell_length_b   13.18780604
_cell_length_c   4.30996878
_cell_angle_alpha   80.59527353
_cell_angle_beta   80.59527353
_cell_angle_gamma   18.81584629
_chemical_formula_structural   Ca3Ga8
_chemical_formula_sum   'Ca3 Ga8'
_cell_volume   238.42142867
loop_
 _symmetry_equiv_pos_site_id
 _symmetry_equiv_pos_as_xyz
  1  'x, y, z'
loop_
 _atom_type_symbol
  Ca
  Ga
loop_
 _atom_site_type_symbol
 _atom_site_label
 _atom_site_symmetry_multiplicity
 _atom_site_fract_x
 _atom_site_fract_y
 _atom_site_fract_z
 _atom_site_occupancy
  Ca  Ca0  1  0.00000000  0.00000000  0.00000000  1
  Ca  Ca1  1  0.14649719  0.14649719  0.35350281  1
  Ca  Ca2  1  0.85350281  0.85350281  0.64649719  1
  Ga  Ga0  1  0.75024797  0.75024797  0.24975203  1
  Ga  Ga1  1  0.24975203  0.24975203  0.75024797  1
  Ga  Ga2  1  0.54825540  0.54825540  0.45174460  1
  Ga  Ga3  1  0.45174460  0.45174460  0.54825540  1
  Ga  Ga4  1  0.40551887  0.40551887  0.09448113  1
  Ga  Ga5  1  0.59448113  0.59448113  0.90551887  1
  Ga  Ga6  1  0.30911879  0.30911879  0.19088121  1
  Ga  Ga7  1  0.69088121  0.69088121  0.80911879  1
