# generated using pymatgen
data_1688_VW2
_symmetry_space_group_name_H-M   'I4/mmm'
_cell_length_a   3.12001929
_cell_length_b   5.16334917
_cell_length_c   6.24909096
_cell_angle_alpha   72.44848635
_cell_angle_beta   90.00000000
_cell_angle_gamma   107.58566185
_chemical_formula_structural   VW2
_chemical_formula_sum   'V2 W4'
_cell_volume   91.03803696
loop_
 _symmetry_equiv_pos_site_id
 _symmetry_equiv_pos_as_xyz
  1  'x, y, z'
loop_
 _atom_type_symbol
  V
  W
loop_
 _atom_site_type_symbol
 _atom_site_label
 _atom_site_symmetry_multiplicity
 _atom_site_fract_x
 _atom_site_fract_y
 _atom_site_fract_z
 _atom_site_occupancy
  V  V0  1  0.36106252  0.72212503  0.77806856  1
  V  V1  1  0.36115971  0.72231941  0.27748700  1
  W  W0  1  0.02574392  0.05148784  0.94540326  1
  W  W1  1  0.69640911  0.39281823  0.61025079  1
  W  W2  1  0.02581311  0.05162622  0.44530476  1
  W  W3  1  0.69647830  0.39295661  0.11015229  1
