# generated using pymatgen
data_168_Fe8Mo16
_symmetry_space_group_name_H-M   'Fd -3 m'
_cell_length_a   7.88204939
_cell_length_b   7.88204939
_cell_length_c   7.88204939
_cell_angle_alpha   60.00000000
_cell_angle_beta   60.00000000
_cell_angle_gamma   60.00000000
_chemical_formula_structural   Fe8Mo16
_chemical_formula_sum   'Fe8 Mo16'
_cell_volume   346.26010553
loop_
 _symmetry_equiv_pos_site_id
 _symmetry_equiv_pos_as_xyz
  1  'x, y, z'
loop_
 _atom_type_symbol
  Fe
  Mo
loop_
 _atom_site_type_symbol
 _atom_site_label
 _atom_site_symmetry_multiplicity
 _atom_site_fract_x
 _atom_site_fract_y
 _atom_site_fract_z
 _atom_site_occupancy
  Fe  Fe0  1  0.71093124  0.86720628  0.71093124  1
  Fe  Fe1  1  0.36720628  0.21093124  0.71093124  1
  Fe  Fe2  1  0.71093124  0.21093124  0.36720628  1
  Fe  Fe3  1  0.71093124  0.21093124  0.71093124  1
  Fe  Fe4  1  0.28906876  0.13279372  0.28906876  1
  Fe  Fe5  1  0.63279372  0.78906876  0.28906876  1
  Fe  Fe6  1  0.28906876  0.78906876  0.63279372  1
  Fe  Fe7  1  0.28906876  0.78906876  0.28906876  1
  Mo  Mo0  1  0.50000000  0.00000000  0.50000000  1
  Mo  Mo1  1  0.50000000  0.00000000  0.00000000  1
  Mo  Mo2  1  0.00000000  0.00000000  0.50000000  1
  Mo  Mo3  1  0.50000000  0.50000000  0.50000000  1
  Mo  Mo4  1  0.30810698  0.80810698  0.94189302  1
  Mo  Mo5  1  0.94189302  0.80810698  0.30810698  1
  Mo  Mo6  1  0.94189302  0.80810698  0.94189302  1
  Mo  Mo7  1  0.30810698  0.44189302  0.30810698  1
  Mo  Mo8  1  0.30810698  0.44189302  0.94189302  1
  Mo  Mo9  1  0.94189302  0.44189302  0.30810698  1
  Mo  Mo10  1  0.69189302  0.19189302  0.05810698  1
  Mo  Mo11  1  0.05810698  0.19189302  0.69189302  1
  Mo  Mo12  1  0.05810698  0.19189302  0.05810698  1
  Mo  Mo13  1  0.69189302  0.55810698  0.69189302  1
  Mo  Mo14  1  0.69189302  0.55810698  0.05810698  1
  Mo  Mo15  1  0.05810698  0.55810698  0.69189302  1
