# generated using pymatgen
data_1691_AuNb3
_symmetry_space_group_name_H-M   'Pmm2'
_cell_length_a   2.78133114
_cell_length_b   4.91843498
_cell_length_c   5.25850605
_cell_angle_alpha   90.00000000
_cell_angle_beta   90.00000000
_cell_angle_gamma   90.00000000
_chemical_formula_structural   AuNb3
_chemical_formula_sum   'Au1 Nb3'
_cell_volume   71.93529197
loop_
 _symmetry_equiv_pos_site_id
 _symmetry_equiv_pos_as_xyz
  1  'x, y, z'
loop_
 _atom_type_symbol
  Au
  Nb
loop_
 _atom_site_type_symbol
 _atom_site_label
 _atom_site_symmetry_multiplicity
 _atom_site_fract_x
 _atom_site_fract_y
 _atom_site_fract_z
 _atom_site_occupancy
  Au  Au0  1  0.00000000  0.00000000  0.99667299  1
  Nb  Nb0  1  0.00000000  0.50000000  0.34457042  1
  Nb  Nb1  1  0.50000000  0.00000000  0.49733294  1
  Nb  Nb2  1  0.50000000  0.50000000  0.82809033  1
