# generated using pymatgen
data_1696_Cr3Na
_symmetry_space_group_name_H-M   'Immm'
_cell_length_a   5.30008219
_cell_length_b   5.30008219
_cell_length_c   5.30008219
_cell_angle_alpha   147.25072985
_cell_angle_beta   123.36774080
_cell_angle_gamma   66.97974528
_chemical_formula_structural   Cr3Na
_chemical_formula_sum   'Cr3 Na1'
_cell_volume   66.41592063
loop_
 _symmetry_equiv_pos_site_id
 _symmetry_equiv_pos_as_xyz
  1  'x, y, z'
loop_
 _atom_type_symbol
  Cr
  Na
loop_
 _atom_site_type_symbol
 _atom_site_label
 _atom_site_symmetry_multiplicity
 _atom_site_fract_x
 _atom_site_fract_y
 _atom_site_fract_z
 _atom_site_occupancy
  Cr  Cr0  1  0.04800976  0.96681838  0.08119137  1
  Cr  Cr1  1  0.61437299  0.53318162  0.08119137  1
  Cr  Cr2  1  0.83635795  0.25000000  0.58635795  1
  Na  Na0  1  0.33459263  0.75000000  0.58459263  1
