# generated using pymatgen
data_1700_Fe2V2
_symmetry_space_group_name_H-M   'Imma'
_cell_length_a   4.78818555
_cell_length_b   4.78818555
_cell_length_c   4.78818555
_cell_angle_alpha   145.25057395
_cell_angle_beta   130.68624926
_cell_angle_gamma   61.73377596
_chemical_formula_structural   Fe2V2
_chemical_formula_sum   'Fe2 V2'
_cell_volume   46.95569318
loop_
 _symmetry_equiv_pos_site_id
 _symmetry_equiv_pos_as_xyz
  1  'x, y, z'
loop_
 _atom_type_symbol
  Fe
  V
loop_
 _atom_site_type_symbol
 _atom_site_label
 _atom_site_symmetry_multiplicity
 _atom_site_fract_x
 _atom_site_fract_y
 _atom_site_fract_z
 _atom_site_occupancy
  Fe  Fe0  1  0.36455851  0.61455851  0.25000000  1
  Fe  Fe1  1  0.63544149  0.38544149  0.75000000  1
  V  V0  1  0.87598215  0.12598215  0.25000000  1
  V  V1  1  0.12401785  0.87401785  0.75000000  1
