# generated using pymatgen
data_1703_Ba5Ir24
_symmetry_space_group_name_H-M   'I-43m'
_cell_length_a   8.77435675
_cell_length_b   8.77435675
_cell_length_c   8.77435675
_cell_angle_alpha   109.47122063
_cell_angle_beta   109.47122063
_cell_angle_gamma   109.47122063
_chemical_formula_structural   Ba5Ir24
_chemical_formula_sum   'Ba5 Ir24'
_cell_volume   520.02470114
loop_
 _symmetry_equiv_pos_site_id
 _symmetry_equiv_pos_as_xyz
  1  'x, y, z'
loop_
 _atom_type_symbol
  Ba
  Ir
loop_
 _atom_site_type_symbol
 _atom_site_label
 _atom_site_symmetry_multiplicity
 _atom_site_fract_x
 _atom_site_fract_y
 _atom_site_fract_z
 _atom_site_occupancy
  Ba  Ba0  1  1.00000000  0.63633833  0.00000000  1
  Ba  Ba1  1  0.63633833  0.00000000  0.00000000  1
  Ba  Ba2  1  1.00000000  0.00000000  0.63633833  1
  Ba  Ba3  1  0.36366167  0.36366167  0.36366167  1
  Ba  Ba4  1  0.00000000  0.00000000  0.00000000  1
  Ir  Ir0  1  0.18860475  0.38538003  0.00000000  1
  Ir  Ir1  1  0.38538003  0.18860475  0.00000000  1
  Ir  Ir2  1  0.81139525  0.81139525  0.19677528  1
  Ir  Ir3  1  0.61461997  0.61461997  0.80322472  1
  Ir  Ir4  1  0.81139525  0.19677528  0.81139525  1
  Ir  Ir5  1  0.61461997  0.80322472  0.61461997  1
  Ir  Ir6  1  0.38538003  0.00000000  0.18860475  1
  Ir  Ir7  1  0.18860475  0.00000000  0.38538003  1
  Ir  Ir8  1  0.00000000  0.38538003  0.18860475  1
  Ir  Ir9  1  0.00000000  0.18860475  0.38538003  1
  Ir  Ir10  1  0.80322472  0.61461997  0.61461997  1
  Ir  Ir11  1  0.19677528  0.81139525  0.81139525  1
  Ir  Ir12  1  0.66118443  0.40456913  0.00000000  1
  Ir  Ir13  1  0.40456913  0.66118443  0.00000000  1
  Ir  Ir14  1  0.33881557  0.33881557  0.74338470  1
  Ir  Ir15  1  0.59543087  0.59543087  0.25661530  1
  Ir  Ir16  1  0.33881557  0.74338470  0.33881557  1
  Ir  Ir17  1  0.59543087  0.25661530  0.59543087  1
  Ir  Ir18  1  0.40456913  0.00000000  0.66118443  1
  Ir  Ir19  1  0.66118443  0.00000000  0.40456913  1
  Ir  Ir20  1  1.00000000  0.40456913  0.66118443  1
  Ir  Ir21  1  0.00000000  0.66118443  0.40456913  1
  Ir  Ir22  1  0.25661530  0.59543087  0.59543087  1
  Ir  Ir23  1  0.74338470  0.33881557  0.33881557  1
