# generated using pymatgen
data_1705_CaMn2
_symmetry_space_group_name_H-M   'Fmmm'
_cell_length_a   6.17429650
_cell_length_b   5.91539956
_cell_length_c   2.19875814
_cell_angle_alpha   86.24290104
_cell_angle_beta   72.94223876
_cell_angle_gamma   20.81486020
_chemical_formula_structural   CaMn2
_chemical_formula_sum   'Ca1 Mn2'
_cell_volume   21.52854623
loop_
 _symmetry_equiv_pos_site_id
 _symmetry_equiv_pos_as_xyz
  1  'x, y, z'
loop_
 _atom_type_symbol
  Ca
  Mn
loop_
 _atom_site_type_symbol
 _atom_site_label
 _atom_site_symmetry_multiplicity
 _atom_site_fract_x
 _atom_site_fract_y
 _atom_site_fract_z
 _atom_site_occupancy
  Ca  Ca0  1  0.50000000  0.50000000  0.50000000  1
  Mn  Mn0  1  0.83125839  0.83125839  0.16874161  1
  Mn  Mn1  1  0.16874161  0.16874161  0.83125839  1
