# generated using pymatgen
data_1707_Pd2Sn
_symmetry_space_group_name_H-M   'Immm'
_cell_length_a   4.97446317
_cell_length_b   4.97446317
_cell_length_c   4.97446317
_cell_angle_alpha   140.88260719
_cell_angle_beta   137.62096870
_cell_angle_gamma   59.03215184
_chemical_formula_structural   Pd2Sn
_chemical_formula_sum   'Pd2 Sn1'
_cell_volume   51.84764773
loop_
 _symmetry_equiv_pos_site_id
 _symmetry_equiv_pos_as_xyz
  1  'x, y, z'
loop_
 _atom_type_symbol
  Pd
  Sn
loop_
 _atom_site_type_symbol
 _atom_site_label
 _atom_site_symmetry_multiplicity
 _atom_site_fract_x
 _atom_site_fract_y
 _atom_site_fract_z
 _atom_site_occupancy
  Pd  Pd0  1  0.66345633  0.66345633  1.00000000  1
  Pd  Pd1  1  0.33654367  0.33654367  1.00000000  1
  Sn  Sn0  1  0.00000000  0.00000000  0.00000000  1
