# generated using pymatgen
data_1710_MnV2
_symmetry_space_group_name_H-M   'I4/mmm'
_cell_length_a   2.89039851
_cell_length_b   4.87243730
_cell_length_c   2.89039851
_cell_angle_alpha   72.74607174
_cell_angle_beta   90.00000000
_cell_angle_gamma   107.25392826
_chemical_formula_structural   MnV2
_chemical_formula_sum   'Mn1 V2'
_cell_volume   36.95201270
loop_
 _symmetry_equiv_pos_site_id
 _symmetry_equiv_pos_as_xyz
  1  'x, y, z'
loop_
 _atom_type_symbol
  Mn
  V
loop_
 _atom_site_type_symbol
 _atom_site_label
 _atom_site_symmetry_multiplicity
 _atom_site_fract_x
 _atom_site_fract_y
 _atom_site_fract_z
 _atom_site_occupancy
  Mn  Mn0  1  0.00000000  0.00000000  0.00000000  1
  V  V0  1  0.33883757  0.67767514  0.66116243  1
  V  V1  1  0.66116243  0.32232486  0.33883757  1
