# generated using pymatgen
data_1713_Ba6Ga2
_symmetry_space_group_name_H-M   'Pmmn'
_cell_length_a   4.70661166
_cell_length_b   10.44268514
_cell_length_c   8.27114480
_cell_angle_alpha   90.00000000
_cell_angle_beta   90.00000000
_cell_angle_gamma   90.00000000
_chemical_formula_structural   Ba6Ga2
_chemical_formula_sum   'Ba6 Ga2'
_cell_volume   406.52398485
loop_
 _symmetry_equiv_pos_site_id
 _symmetry_equiv_pos_as_xyz
  1  'x, y, z'
loop_
 _atom_type_symbol
  Ba
  Ga
loop_
 _atom_site_type_symbol
 _atom_site_label
 _atom_site_symmetry_multiplicity
 _atom_site_fract_x
 _atom_site_fract_y
 _atom_site_fract_z
 _atom_site_occupancy
  Ba  Ba0  1  0.50000000  0.52551030  0.00000000  1
  Ba  Ba1  1  0.00000000  0.47448970  0.50000000  1
  Ba  Ba2  1  0.00000000  0.83231919  0.25530432  1
  Ba  Ba3  1  0.00000000  0.83231919  0.74469568  1
  Ba  Ba4  1  0.50000000  0.16768081  0.75530432  1
  Ba  Ba5  1  0.50000000  0.16768081  0.24469568  1
  Ga  Ga0  1  0.00000000  0.29180709  0.00000000  1
  Ga  Ga1  1  0.50000000  0.70819291  0.50000000  1
