# generated using pymatgen
data_1717_Au4Ga
_symmetry_space_group_name_H-M   'I4/mmm'
_cell_length_a   7.43517645
_cell_length_b   7.43517645
_cell_length_c   7.43517645
_cell_angle_alpha   149.80885965
_cell_angle_beta   149.80885965
_cell_angle_gamma   43.22204846
_chemical_formula_structural   Au4Ga
_chemical_formula_sum   'Au4 Ga1'
_cell_volume   103.67185228
loop_
 _symmetry_equiv_pos_site_id
 _symmetry_equiv_pos_as_xyz
  1  'x, y, z'
loop_
 _atom_type_symbol
  Au
  Ga
loop_
 _atom_site_type_symbol
 _atom_site_label
 _atom_site_symmetry_multiplicity
 _atom_site_fract_x
 _atom_site_fract_y
 _atom_site_fract_z
 _atom_site_occupancy
  Au  Au0  1  0.25000000  0.75000000  0.50000000  1
  Au  Au1  1  0.75000000  0.25000000  0.50000000  1
  Au  Au2  1  0.59635949  0.59635949  0.00000000  1
  Au  Au3  1  0.40364051  0.40364051  0.00000000  1
  Ga  Ga0  1  0.00000000  0.00000000  0.00000000  1
