# generated using pymatgen
data_1731_CrTa
_symmetry_space_group_name_H-M   'P-6m2'
_cell_length_a   2.85640947
_cell_length_b   2.85640603
_cell_length_c   4.53158340
_cell_angle_alpha   90.00000000
_cell_angle_beta   90.00000000
_cell_angle_gamma   120.00002733
_chemical_formula_structural   CrTa
_chemical_formula_sum   'Cr1 Ta1'
_cell_volume   32.01996804
loop_
 _symmetry_equiv_pos_site_id
 _symmetry_equiv_pos_as_xyz
  1  'x, y, z'
loop_
 _atom_type_symbol
  Cr
  Ta
loop_
 _atom_site_type_symbol
 _atom_site_label
 _atom_site_symmetry_multiplicity
 _atom_site_fract_x
 _atom_site_fract_y
 _atom_site_fract_z
 _atom_site_occupancy
  Cr  Cr0  1  0.66666825  0.33333550  0.75000000  1
  Ta  Ta0  1  0.33333175  0.66666450  0.25000000  1
