# generated using pymatgen
data_1733_FeV
_symmetry_space_group_name_H-M   'P-6m2'
_cell_length_a   2.54784947
_cell_length_b   2.54779533
_cell_length_c   4.19738883
_cell_angle_alpha   90.00000000
_cell_angle_beta   90.00000000
_cell_angle_gamma   120.00071458
_chemical_formula_structural   FeV
_chemical_formula_sum   'Fe1 V1'
_cell_volume   23.59635980
loop_
 _symmetry_equiv_pos_site_id
 _symmetry_equiv_pos_as_xyz
  1  'x, y, z'
loop_
 _atom_type_symbol
  Fe
  V
loop_
 _atom_site_type_symbol
 _atom_site_label
 _atom_site_symmetry_multiplicity
 _atom_site_fract_x
 _atom_site_fract_y
 _atom_site_fract_z
 _atom_site_occupancy
  Fe  Fe0  1  0.66666745  0.33333391  0.75000000  1
  V  V0  1  0.33333255  0.66666609  0.25000000  1
