# generated using pymatgen
data_1735_Ba6Sn2
_symmetry_space_group_name_H-M   'Cmcm'
_cell_length_a   7.88727170
_cell_length_b   7.88727170
_cell_length_c   6.11985056
_cell_angle_alpha   90.00000000
_cell_angle_beta   90.00000000
_cell_angle_gamma   81.35152083
_chemical_formula_structural   Ba6Sn2
_chemical_formula_sum   'Ba6 Sn2'
_cell_volume   376.38125598
loop_
 _symmetry_equiv_pos_site_id
 _symmetry_equiv_pos_as_xyz
  1  'x, y, z'
loop_
 _atom_type_symbol
  Ba
  Sn
loop_
 _atom_site_type_symbol
 _atom_site_label
 _atom_site_symmetry_multiplicity
 _atom_site_fract_x
 _atom_site_fract_y
 _atom_site_fract_z
 _atom_site_occupancy
  Ba  Ba0  1  0.78202739  0.21797261  0.75000000  1
  Ba  Ba1  1  0.21797261  0.78202739  0.25000000  1
  Ba  Ba2  1  0.89729508  0.66148486  0.75000000  1
  Ba  Ba3  1  0.10270492  0.33851514  0.25000000  1
  Ba  Ba4  1  0.33851514  0.10270492  0.75000000  1
  Ba  Ba5  1  0.66148486  0.89729508  0.25000000  1
  Sn  Sn0  1  0.57485047  0.42514953  0.25000000  1
  Sn  Sn1  1  0.42514953  0.57485047  0.75000000  1
