# generated using pymatgen
data_1739_Ba12Ir17
_symmetry_space_group_name_H-M   'I-43m'
_cell_length_a   10.62145392
_cell_length_b   10.62145392
_cell_length_c   10.62145392
_cell_angle_alpha   109.47122063
_cell_angle_beta   109.47122063
_cell_angle_gamma   109.47122063
_chemical_formula_structural   Ba12Ir17
_chemical_formula_sum   'Ba12 Ir17'
_cell_volume   922.42277471
loop_
 _symmetry_equiv_pos_site_id
 _symmetry_equiv_pos_as_xyz
  1  'x, y, z'
loop_
 _atom_type_symbol
  Ba
  Ir
loop_
 _atom_site_type_symbol
 _atom_site_label
 _atom_site_symmetry_multiplicity
 _atom_site_fract_x
 _atom_site_fract_y
 _atom_site_fract_z
 _atom_site_occupancy
  Ba  Ba0  1  0.22685182  0.79281070  0.22685182  1
  Ba  Ba1  1  0.43404112  0.20718930  0.43404112  1
  Ba  Ba2  1  0.77314818  0.00000000  0.56595888  1
  Ba  Ba3  1  0.56595888  0.00000000  0.77314818  1
  Ba  Ba4  1  0.77314818  0.56595888  0.00000000  1
  Ba  Ba5  1  0.56595888  0.77314818  0.00000000  1
  Ba  Ba6  1  0.43404112  0.43404112  0.20718930  1
  Ba  Ba7  1  0.22685182  0.22685182  0.79281070  1
  Ba  Ba8  1  1.00000000  0.56595888  0.77314818  1
  Ba  Ba9  1  1.00000000  0.77314818  0.56595888  1
  Ba  Ba10  1  0.79281070  0.22685182  0.22685182  1
  Ba  Ba11  1  0.20718930  0.43404112  0.43404112  1
  Ir  Ir0  1  0.76779195  0.28881632  0.76779195  1
  Ir  Ir1  1  0.47897563  0.71118368  0.47897563  1
  Ir  Ir2  1  0.23220805  0.00000000  0.52102437  1
  Ir  Ir3  1  0.52102437  0.00000000  0.23220805  1
  Ir  Ir4  1  0.23220805  0.52102437  0.00000000  1
  Ir  Ir5  1  0.52102437  0.23220805  0.00000000  1
  Ir  Ir6  1  0.47897563  0.47897563  0.71118368  1
  Ir  Ir7  1  0.76779195  0.76779195  0.28881632  1
  Ir  Ir8  1  1.00000000  0.52102437  0.23220805  1
  Ir  Ir9  1  1.00000000  0.23220805  0.52102437  1
  Ir  Ir10  1  0.28881632  0.76779195  0.76779195  1
  Ir  Ir11  1  0.71118368  0.47897563  0.47897563  1
  Ir  Ir12  1  0.00000000  0.38712597  0.00000000  1
  Ir  Ir13  1  0.61287403  0.61287403  0.61287403  1
  Ir  Ir14  1  0.00000000  0.00000000  0.38712597  1
  Ir  Ir15  1  0.38712597  0.00000000  0.00000000  1
  Ir  Ir16  1  0.00000000  0.00000000  0.00000000  1
