# generated using pymatgen
data_173_Ba2V
_symmetry_space_group_name_H-M   'I4/mmm'
_cell_length_a   8.12023990
_cell_length_b   8.12023990
_cell_length_c   8.12023990
_cell_angle_alpha   150.58085533
_cell_angle_beta   150.51792474
_cell_angle_gamma   42.13557418
_chemical_formula_structural   Ba2V
_chemical_formula_sum   'Ba2 V1'
_cell_volume   129.12801044
loop_
 _symmetry_equiv_pos_site_id
 _symmetry_equiv_pos_as_xyz
  1  'x, y, z'
loop_
 _atom_type_symbol
  Ba
  V
loop_
 _atom_site_type_symbol
 _atom_site_label
 _atom_site_symmetry_multiplicity
 _atom_site_fract_x
 _atom_site_fract_y
 _atom_site_fract_z
 _atom_site_occupancy
  Ba  Ba0  1  0.63447343  0.63447343  1.00000000  1
  Ba  Ba1  1  0.36552657  0.36552657  0.00000000  1
  V  V0  1  0.00000000  0.00000000  0.00000000  1
