# generated using pymatgen
data_1741_Pt8V
_symmetry_space_group_name_H-M   'I4/mmm'
_cell_length_a   6.24084969
_cell_length_b   6.24084969
_cell_length_c   6.24084969
_cell_angle_alpha   95.69320980
_cell_angle_beta   95.69320980
_cell_angle_gamma   143.28281435
_chemical_formula_structural   Pt8V
_chemical_formula_sum   'Pt8 V1'
_cell_volume   137.92674573
loop_
 _symmetry_equiv_pos_site_id
 _symmetry_equiv_pos_as_xyz
  1  'x, y, z'
loop_
 _atom_type_symbol
  Pt
  V
loop_
 _atom_site_type_symbol
 _atom_site_label
 _atom_site_symmetry_multiplicity
 _atom_site_fract_x
 _atom_site_fract_y
 _atom_site_fract_z
 _atom_site_occupancy
  Pt  Pt0  1  0.33908394  0.66091606  0.00000000  1
  Pt  Pt1  1  0.66091606  0.33908394  0.00000000  1
  Pt  Pt2  1  0.66091606  0.66091606  0.32183212  1
  Pt  Pt3  1  0.33908394  0.33908394  0.67816788  1
  Pt  Pt4  1  0.32786925  0.00000000  0.32786925  1
  Pt  Pt5  1  0.67213075  0.00000000  0.67213075  1
  Pt  Pt6  1  0.00000000  0.67213075  0.67213075  1
  Pt  Pt7  1  1.00000000  0.32786925  0.32786925  1
  V  V0  1  0.00000000  0.00000000  0.00000000  1
