# generated using pymatgen
data_1743_Na5Pt4
_symmetry_space_group_name_H-M   'I4/mmm'
_cell_length_a   9.28866424
_cell_length_b   9.28866424
_cell_length_c   6.89137046
_cell_angle_alpha   47.62853949
_cell_angle_beta   47.62853949
_cell_angle_gamma   90.00000000
_chemical_formula_structural   Na5Pt4
_chemical_formula_sum   'Na5 Pt4'
_cell_volume   179.97753249
loop_
 _symmetry_equiv_pos_site_id
 _symmetry_equiv_pos_as_xyz
  1  'x, y, z'
loop_
 _atom_type_symbol
  Na
  Pt
loop_
 _atom_site_type_symbol
 _atom_site_label
 _atom_site_symmetry_multiplicity
 _atom_site_fract_x
 _atom_site_fract_y
 _atom_site_fract_z
 _atom_site_occupancy
  Na  Na0  1  0.00000000  0.00000000  0.00000000  1
  Na  Na1  1  0.32166293  0.32166293  0.00000000  1
  Na  Na2  1  0.32166293  0.67833707  0.00000000  1
  Na  Na3  1  0.67833707  0.32166293  0.00000000  1
  Na  Na4  1  0.67833707  0.67833707  0.00000000  1
  Pt  Pt0  1  0.00000000  0.35710410  0.00000000  1
  Pt  Pt1  1  0.00000000  0.64289590  0.00000000  1
  Pt  Pt2  1  0.35710410  0.00000000  0.00000000  1
  Pt  Pt3  1  0.64289590  0.00000000  0.00000000  1
