# generated using pymatgen
data_1744_Na2Pt2
_symmetry_space_group_name_H-M   'P4/nmm'
_cell_length_a   2.85928779
_cell_length_b   2.85928779
_cell_length_c   9.78824114
_cell_angle_alpha   90.00000000
_cell_angle_beta   90.00000000
_cell_angle_gamma   90.00000000
_chemical_formula_structural   Na2Pt2
_chemical_formula_sum   'Na2 Pt2'
_cell_volume   80.02402645
loop_
 _symmetry_equiv_pos_site_id
 _symmetry_equiv_pos_as_xyz
  1  'x, y, z'
loop_
 _atom_type_symbol
  Na
  Pt
loop_
 _atom_site_type_symbol
 _atom_site_label
 _atom_site_symmetry_multiplicity
 _atom_site_fract_x
 _atom_site_fract_y
 _atom_site_fract_z
 _atom_site_occupancy
  Na  Na0  1  0.25000000  0.25000000  0.17745319  1
  Na  Na1  1  0.75000000  0.75000000  0.82254681  1
  Pt  Pt0  1  0.25000000  0.25000000  0.59904075  1
  Pt  Pt1  1  0.75000000  0.75000000  0.40095925  1
