# generated using pymatgen
data_1750_MnSb2
_symmetry_space_group_name_H-M   'I4/mmm'
_cell_length_a   6.75179340
_cell_length_b   6.75179340
_cell_length_c   6.75179340
_cell_angle_alpha   153.05500464
_cell_angle_beta   153.05500464
_cell_angle_gamma   38.47461376
_chemical_formula_structural   MnSb2
_chemical_formula_sum   'Mn1 Sb2'
_cell_volume   63.09515293
loop_
 _symmetry_equiv_pos_site_id
 _symmetry_equiv_pos_as_xyz
  1  'x, y, z'
loop_
 _atom_type_symbol
  Mn
  Sb
loop_
 _atom_site_type_symbol
 _atom_site_label
 _atom_site_symmetry_multiplicity
 _atom_site_fract_x
 _atom_site_fract_y
 _atom_site_fract_z
 _atom_site_occupancy
  Mn  Mn0  1  0.00000000  0.00000000  0.00000000  1
  Sb  Sb0  1  0.62657091  0.62657091  0.00000000  1
  Sb  Sb1  1  0.37342909  0.37342909  0.00000000  1
