# generated using pymatgen
data_1751_Al2P2
_symmetry_space_group_name_H-M   'P4/nmm'
_cell_length_a   3.11129086
_cell_length_b   3.11129086
_cell_length_c   6.31228113
_cell_angle_alpha   90.00000000
_cell_angle_beta   90.00000000
_cell_angle_gamma   90.00000000
_chemical_formula_structural   Al2P2
_chemical_formula_sum   'Al2 P2'
_cell_volume   61.10370708
loop_
 _symmetry_equiv_pos_site_id
 _symmetry_equiv_pos_as_xyz
  1  'x, y, z'
loop_
 _atom_type_symbol
  Al
  P
loop_
 _atom_site_type_symbol
 _atom_site_label
 _atom_site_symmetry_multiplicity
 _atom_site_fract_x
 _atom_site_fract_y
 _atom_site_fract_z
 _atom_site_occupancy
  Al  Al0  1  0.25000000  0.25000000  0.15269276  1
  Al  Al1  1  0.75000000  0.75000000  0.84730724  1
  P  P0  1  0.25000000  0.25000000  0.60884371  1
  P  P1  1  0.75000000  0.75000000  0.39115629  1
