# generated using pymatgen
data_1755_V3W
_symmetry_space_group_name_H-M   'P4/mmm'
_cell_length_a   3.04805924
_cell_length_b   3.04805924
_cell_length_c   6.06619650
_cell_angle_alpha   90.00000000
_cell_angle_beta   90.00000000
_cell_angle_gamma   90.00000000
_chemical_formula_structural   V3W
_chemical_formula_sum   'V3 W1'
_cell_volume   56.35900030
loop_
 _symmetry_equiv_pos_site_id
 _symmetry_equiv_pos_as_xyz
  1  'x, y, z'
loop_
 _atom_type_symbol
  V
  W
loop_
 _atom_site_type_symbol
 _atom_site_label
 _atom_site_symmetry_multiplicity
 _atom_site_fract_x
 _atom_site_fract_y
 _atom_site_fract_z
 _atom_site_occupancy
  V  V0  1  0.00000000  0.00000000  0.00540465  1
  V  V1  1  0.00000000  0.00000000  0.49459535  1
  V  V2  1  0.50000000  0.50000000  0.25000000  1
  W  W0  1  0.50000000  0.50000000  0.75000000  1
