# generated using pymatgen
data_176_In3K
_symmetry_space_group_name_H-M   'Cmmm'
_cell_length_a   3.85635666
_cell_length_b   3.85635666
_cell_length_c   8.64959080
_cell_angle_alpha   90.00000000
_cell_angle_beta   90.00000000
_cell_angle_gamma   91.48228161
_chemical_formula_structural   In3K
_chemical_formula_sum   'In3 K1'
_cell_volume   128.58923052
loop_
 _symmetry_equiv_pos_site_id
 _symmetry_equiv_pos_as_xyz
  1  'x, y, z'
loop_
 _atom_type_symbol
  In
  K
loop_
 _atom_site_type_symbol
 _atom_site_label
 _atom_site_symmetry_multiplicity
 _atom_site_fract_x
 _atom_site_fract_y
 _atom_site_fract_z
 _atom_site_occupancy
  In  In0  1  0.00000000  0.00000000  0.95074809  1
  In  In1  1  0.50000000  0.50000000  0.75000000  1
  In  In2  1  0.00000000  0.00000000  0.54925191  1
  K  K0  1  0.50000000  0.50000000  0.25000000  1
