# generated using pymatgen
data_1818_Ba2Pd
_symmetry_space_group_name_H-M   'Fmmm'
_cell_length_a   8.22652377
_cell_length_b   8.18023635
_cell_length_c   3.98984680
_cell_angle_alpha   76.43796352
_cell_angle_beta   75.25518886
_cell_angle_gamma   28.13445934
_chemical_formula_structural   Ba2Pd
_chemical_formula_sum   'Ba2 Pd1'
_cell_volume   122.40832286
loop_
 _symmetry_equiv_pos_site_id
 _symmetry_equiv_pos_as_xyz
  1  'x, y, z'
loop_
 _atom_type_symbol
  Ba
  Pd
loop_
 _atom_site_type_symbol
 _atom_site_label
 _atom_site_symmetry_multiplicity
 _atom_site_fract_x
 _atom_site_fract_y
 _atom_site_fract_z
 _atom_site_occupancy
  Ba  Ba0  1  0.95639072  0.95441393  0.04594316  1
  Ba  Ba1  1  0.71027594  0.71225273  0.28739018  1
  Pd  Pd0  1  0.33333333  0.33333333  0.66666667  1
