# generated using pymatgen
data_1822_Ca3Mo
_symmetry_space_group_name_H-M   'Imm2'
_cell_length_a   6.75230361
_cell_length_b   6.75230361
_cell_length_c   6.75230361
_cell_angle_alpha   150.78792290
_cell_angle_beta   127.10328198
_cell_angle_gamma   61.57077070
_chemical_formula_structural   Ca3Mo
_chemical_formula_sum   'Ca3 Mo1'
_cell_volume   118.82066451
loop_
 _symmetry_equiv_pos_site_id
 _symmetry_equiv_pos_as_xyz
  1  'x, y, z'
loop_
 _atom_type_symbol
  Ca
  Mo
loop_
 _atom_site_type_symbol
 _atom_site_label
 _atom_site_symmetry_multiplicity
 _atom_site_fract_x
 _atom_site_fract_y
 _atom_site_fract_z
 _atom_site_occupancy
  Ca  Ca0  1  0.07432601  0.03822485  0.03610116  1
  Ca  Ca1  1  0.49787631  0.46177515  0.03610116  1
  Ca  Ca2  1  0.86545298  0.25000000  0.61545298  1
  Mo  Mo0  1  0.39567803  0.75000000  0.64567803  1
