# generated using pymatgen
data_1839_Al2Th2
_symmetry_space_group_name_H-M   'Cmcm'
_cell_length_a   4.17999200
_cell_length_b   4.45598800
_cell_length_c   6.14758587
_cell_angle_alpha   68.75124961
_cell_angle_beta   90.00000000
_cell_angle_gamma   90.00000000
_chemical_formula_structural   Al2Th2
_chemical_formula_sum   'Al2 Th2'
_cell_volume   106.72037174
loop_
 _symmetry_equiv_pos_site_id
 _symmetry_equiv_pos_as_xyz
  1  'x, y, z'
loop_
 _atom_type_symbol
  Al
  Th
loop_
 _atom_site_type_symbol
 _atom_site_label
 _atom_site_symmetry_multiplicity
 _atom_site_fract_x
 _atom_site_fract_y
 _atom_site_fract_z
 _atom_site_occupancy
  Al  Al0  1  0.74999903  0.42944499  0.14110818  1
  Al  Al1  1  0.25000047  0.57055201  0.85889243  1
  Th  Th0  1  0.25000047  0.85488711  0.29022209  1
  Th  Th1  1  0.74999903  0.14510988  0.70977852  1
