# generated using pymatgen
data_1840_GaMo
_symmetry_space_group_name_H-M   'P-6m2'
_cell_length_a   2.87250920
_cell_length_b   2.87249967
_cell_length_c   4.38020656
_cell_angle_alpha   90.00000000
_cell_angle_beta   90.00000000
_cell_angle_gamma   120.00012059
_chemical_formula_structural   GaMo
_chemical_formula_sum   'Ga1 Mo1'
_cell_volume   31.30012783
loop_
 _symmetry_equiv_pos_site_id
 _symmetry_equiv_pos_as_xyz
  1  'x, y, z'
loop_
 _atom_type_symbol
  Ga
  Mo
loop_
 _atom_site_type_symbol
 _atom_site_label
 _atom_site_symmetry_multiplicity
 _atom_site_fract_x
 _atom_site_fract_y
 _atom_site_fract_z
 _atom_site_occupancy
  Ga  Ga0  1  0.66666725  0.33333350  0.75000000  1
  Mo  Mo0  1  0.33333275  0.66666650  0.25000000  1
