# generated using pymatgen
data_1842_AcAl3
_symmetry_space_group_name_H-M   'I4/mmm'
_cell_length_a   5.54790565
_cell_length_b   5.54790565
_cell_length_c   5.54790565
_cell_angle_alpha   129.90581843
_cell_angle_beta   129.90581843
_cell_angle_gamma   73.55737429
_chemical_formula_structural   AcAl3
_chemical_formula_sum   'Ac1 Al3'
_cell_volume   98.05746226
loop_
 _symmetry_equiv_pos_site_id
 _symmetry_equiv_pos_as_xyz
  1  'x, y, z'
loop_
 _atom_type_symbol
  Ac
  Al
loop_
 _atom_site_type_symbol
 _atom_site_label
 _atom_site_symmetry_multiplicity
 _atom_site_fract_x
 _atom_site_fract_y
 _atom_site_fract_z
 _atom_site_occupancy
  Ac  Ac0  1  0.00000000  0.00000000  0.00000000  1
  Al  Al0  1  0.50000019  0.50000019  0.00000000  1
  Al  Al1  1  0.75000043  0.25000009  0.50000033  1
  Al  Al2  1  0.25000009  0.75000043  0.50000033  1
