# generated using pymatgen
data_1844_Ni2Pb2
_symmetry_space_group_name_H-M   'P6_3/mmc'
_cell_length_a   4.14636500
_cell_length_b   4.14657834
_cell_length_c   5.17851552
_cell_angle_alpha   90.00000000
_cell_angle_beta   90.00000000
_cell_angle_gamma   119.99829804
_chemical_formula_structural   Ni2Pb2
_chemical_formula_sum   'Ni2 Pb2'
_cell_volume   77.10823583
loop_
 _symmetry_equiv_pos_site_id
 _symmetry_equiv_pos_as_xyz
  1  'x, y, z'
loop_
 _atom_type_symbol
  Ni
  Pb
loop_
 _atom_site_type_symbol
 _atom_site_label
 _atom_site_symmetry_multiplicity
 _atom_site_fract_x
 _atom_site_fract_y
 _atom_site_fract_z
 _atom_site_occupancy
  Ni  Ni0  1  0.00000000  0.00000000  0.00000000  1
  Ni  Ni1  1  0.00000000  0.00000000  0.50000000  1
  Pb  Pb0  1  0.33331362  0.66662724  0.25000000  1
  Pb  Pb1  1  0.66668638  0.33337276  0.75000000  1
