# generated using pymatgen
data_1845_SmBi
_symmetry_space_group_name_H-M   'P-6m2'
_cell_length_a   3.93502115
_cell_length_b   3.93481991
_cell_length_c   4.59398989
_cell_angle_alpha   90.00000000
_cell_angle_beta   90.00000000
_cell_angle_gamma   120.00169193
_chemical_formula_structural   SmBi
_chemical_formula_sum   'Bi1 Sm1'
_cell_volume   61.60063557
loop_
 _symmetry_equiv_pos_site_id
 _symmetry_equiv_pos_as_xyz
  1  'x, y, z'
loop_
 _atom_type_symbol
  Bi
  Sm
loop_
 _atom_site_type_symbol
 _atom_site_label
 _atom_site_symmetry_multiplicity
 _atom_site_fract_x
 _atom_site_fract_y
 _atom_site_fract_z
 _atom_site_occupancy
  Bi  Bi0  1  0.66667244  0.33334389  0.75000000  1
  Sm  Sm0  1  0.33332756  0.66665611  0.25000000  1
