# generated using pymatgen
data_1848_MnNi
_symmetry_space_group_name_H-M   'P-6m2'
_cell_length_a   2.46303119
_cell_length_b   2.46301473
_cell_length_c   4.05974225
_cell_angle_alpha   90.00000000
_cell_angle_beta   90.00000000
_cell_angle_gamma   120.00020876
_chemical_formula_structural   MnNi
_chemical_formula_sum   'Mn1 Ni1'
_cell_volume   21.32873510
loop_
 _symmetry_equiv_pos_site_id
 _symmetry_equiv_pos_as_xyz
  1  'x, y, z'
loop_
 _atom_type_symbol
  Mn
  Ni
loop_
 _atom_site_type_symbol
 _atom_site_label
 _atom_site_symmetry_multiplicity
 _atom_site_fract_x
 _atom_site_fract_y
 _atom_site_fract_z
 _atom_site_occupancy
  Mn  Mn0  1  0.66666770  0.33333440  0.75000000  1
  Ni  Ni0  1  0.33333230  0.66666560  0.25000000  1
