# generated using pymatgen
data_1849_AlSb3
_symmetry_space_group_name_H-M   'Immm'
_cell_length_a   6.50189096
_cell_length_b   6.50189096
_cell_length_c   6.50189096
_cell_angle_alpha   145.55937078
_cell_angle_beta   137.28819071
_cell_angle_gamma   55.97963982
_chemical_formula_structural   AlSb3
_chemical_formula_sum   'Al1 Sb3'
_cell_volume   104.66648687
loop_
 _symmetry_equiv_pos_site_id
 _symmetry_equiv_pos_as_xyz
  1  'x, y, z'
loop_
 _atom_type_symbol
  Al
  Sb
loop_
 _atom_site_type_symbol
 _atom_site_label
 _atom_site_symmetry_multiplicity
 _atom_site_fract_x
 _atom_site_fract_y
 _atom_site_fract_z
 _atom_site_occupancy
  Al  Al0  1  0.00000000  0.00000000  0.00000000  1
  Sb  Sb0  1  0.81001791  0.31001791  0.50000000  1
  Sb  Sb1  1  0.50000000  0.50000000  1.00000000  1
  Sb  Sb2  1  0.18998209  0.68998209  0.50000000  1
