# generated using pymatgen
data_1853_VSb
_symmetry_space_group_name_H-M   'P-6m2'
_cell_length_a   3.40077413
_cell_length_b   3.40076848
_cell_length_c   3.70455738
_cell_angle_alpha   89.99999735
_cell_angle_beta   90.00000349
_cell_angle_gamma   119.99993594
_chemical_formula_structural   VSb
_chemical_formula_sum   'Sb1 V1'
_cell_volume   37.10411631
loop_
 _symmetry_equiv_pos_site_id
 _symmetry_equiv_pos_as_xyz
  1  'x, y, z'
loop_
 _atom_type_symbol
  Sb
  V
loop_
 _atom_site_type_symbol
 _atom_site_label
 _atom_site_symmetry_multiplicity
 _atom_site_fract_x
 _atom_site_fract_y
 _atom_site_fract_z
 _atom_site_occupancy
  Sb  Sb0  1  0.66666791  0.33333492  0.75000005  1
  V  V0  1  0.33333375  0.66666814  0.25000028  1
