# generated using pymatgen
data_1854_Ag5Al4
_symmetry_space_group_name_H-M   'P-1'
_cell_length_a   5.03039915
_cell_length_b   5.03339027
_cell_length_c   7.43904295
_cell_angle_alpha   107.80204743
_cell_angle_beta   110.79933428
_cell_angle_gamma   62.22151534
_chemical_formula_structural   Ag5Al4
_chemical_formula_sum   'Ag5 Al4'
_cell_volume   153.53318298
loop_
 _symmetry_equiv_pos_site_id
 _symmetry_equiv_pos_as_xyz
  1  'x, y, z'
loop_
 _atom_type_symbol
  Ag
  Al
loop_
 _atom_site_type_symbol
 _atom_site_label
 _atom_site_symmetry_multiplicity
 _atom_site_fract_x
 _atom_site_fract_y
 _atom_site_fract_z
 _atom_site_occupancy
  Ag  Ag0  1  0.00755164  0.99374822  0.00000585  1
  Ag  Ag1  1  0.80734339  0.42376029  0.34912569  1
  Ag  Ag2  1  0.52598994  0.90957305  0.65087431  1
  Ag  Ag3  1  0.32578169  0.33958511  0.99999415  1
  Ag  Ag4  1  0.66666667  0.66666667  1.00000000  1
  Al  Al0  1  0.11884384  0.75800068  0.32670774  1
  Al  Al1  1  0.87250218  0.23614205  0.67507658  1
  Al  Al2  1  0.46083116  0.09719128  0.32492342  1
  Al  Al3  1  0.21448949  0.57533266  0.67329226  1
