# generated using pymatgen
data_1855_Ag2Ge4
_symmetry_space_group_name_H-M   'Pnnm'
_cell_length_a   4.27728860
_cell_length_b   4.29268113
_cell_length_c   6.86724749
_cell_angle_alpha   90.00000000
_cell_angle_beta   90.00000000
_cell_angle_gamma   90.00000000
_chemical_formula_structural   Ag2Ge4
_chemical_formula_sum   'Ag2 Ge4'
_cell_volume   126.08977880
loop_
 _symmetry_equiv_pos_site_id
 _symmetry_equiv_pos_as_xyz
  1  'x, y, z'
loop_
 _atom_type_symbol
  Ag
  Ge
loop_
 _atom_site_type_symbol
 _atom_site_label
 _atom_site_symmetry_multiplicity
 _atom_site_fract_x
 _atom_site_fract_y
 _atom_site_fract_z
 _atom_site_occupancy
  Ag  Ag0  1  0.00000000  0.00000000  0.00000000  1
  Ag  Ag1  1  0.50000000  0.50000000  0.50000000  1
  Ge  Ge0  1  0.00000000  0.19586618  0.64062535  1
  Ge  Ge1  1  0.00000000  0.80413382  0.35937465  1
  Ge  Ge2  1  0.50000000  0.69586618  0.85937465  1
  Ge  Ge3  1  0.50000000  0.30413382  0.14062535  1
