# generated using pymatgen
data_1858_AlTa4
_symmetry_space_group_name_H-M   'I4/m'
_cell_length_a   5.37619352
_cell_length_b   5.37619352
_cell_length_c   5.37619352
_cell_angle_alpha   96.04074025
_cell_angle_beta   96.04074025
_cell_angle_gamma   142.14150019
_chemical_formula_structural   AlTa4
_chemical_formula_sum   'Al1 Ta4'
_cell_volume   90.20792677
loop_
 _symmetry_equiv_pos_site_id
 _symmetry_equiv_pos_as_xyz
  1  'x, y, z'
loop_
 _atom_type_symbol
  Al
  Ta
loop_
 _atom_site_type_symbol
 _atom_site_label
 _atom_site_symmetry_multiplicity
 _atom_site_fract_x
 _atom_site_fract_y
 _atom_site_fract_z
 _atom_site_occupancy
  Al  Al0  1  0.00000000  0.00000000  0.00000000  1
  Ta  Ta0  1  0.80164096  0.40387685  0.20551781  1
  Ta  Ta1  1  0.40387685  0.19835904  0.60223589  1
  Ta  Ta2  1  0.19835904  0.59612315  0.79448219  1
  Ta  Ta3  1  0.59612315  0.80164096  0.39776411  1
