# generated using pymatgen
data_1860_Nb2W4
_symmetry_space_group_name_H-M   'Pnnm'
_cell_length_a   2.71667218
_cell_length_b   8.00504164
_cell_length_c   4.63858028
_cell_angle_alpha   90.00000000
_cell_angle_beta   90.00000000
_cell_angle_gamma   90.00000000
_chemical_formula_structural   Nb2W4
_chemical_formula_sum   'Nb2 W4'
_cell_volume   100.87554825
loop_
 _symmetry_equiv_pos_site_id
 _symmetry_equiv_pos_as_xyz
  1  'x, y, z'
loop_
 _atom_type_symbol
  Nb
  W
loop_
 _atom_site_type_symbol
 _atom_site_label
 _atom_site_symmetry_multiplicity
 _atom_site_fract_x
 _atom_site_fract_y
 _atom_site_fract_z
 _atom_site_occupancy
  Nb  Nb0  1  0.00000000  0.00000000  0.00000000  1
  Nb  Nb1  1  0.50000000  0.50000000  0.50000000  1
  W  W0  1  0.20652544  0.33416723  0.00000000  1
  W  W1  1  0.29347456  0.83416723  0.50000000  1
  W  W2  1  0.70652544  0.16583277  0.50000000  1
  W  W3  1  0.79347456  0.66583277  0.00000000  1
