# generated using pymatgen
data_1863_Fe4W2
_symmetry_space_group_name_H-M   'Cmcm'
_cell_length_a   3.59275424
_cell_length_b   5.89437790
_cell_length_c   3.66216097
_cell_angle_alpha   90.00000000
_cell_angle_beta   90.00000000
_cell_angle_gamma   72.25620801
_chemical_formula_structural   Fe4W2
_chemical_formula_sum   'Fe4 W2'
_cell_volume   73.86444639
loop_
 _symmetry_equiv_pos_site_id
 _symmetry_equiv_pos_as_xyz
  1  'x, y, z'
loop_
 _atom_type_symbol
  Fe
  W
loop_
 _atom_site_type_symbol
 _atom_site_label
 _atom_site_symmetry_multiplicity
 _atom_site_fract_x
 _atom_site_fract_y
 _atom_site_fract_z
 _atom_site_occupancy
  Fe  Fe0  1  0.58865764  0.82268472  0.25000000  1
  Fe  Fe1  1  0.41134236  0.17731528  0.75000000  1
  Fe  Fe2  1  0.24845434  0.50309133  0.25000000  1
  Fe  Fe3  1  0.75154566  0.49690867  0.75000000  1
  W  W0  1  0.90589893  0.18820214  0.25000000  1
  W  W1  1  0.09410107  0.81179786  0.75000000  1
