# generated using pymatgen
data_1864_Fe5W
_symmetry_space_group_name_H-M   'Amm2'
_cell_length_a   2.54329898
_cell_length_b   6.83817562
_cell_length_c   4.08085980
_cell_angle_alpha   90.00000000
_cell_angle_beta   90.00000000
_cell_angle_gamma   79.28270177
_chemical_formula_structural   Fe5W
_chemical_formula_sum   'Fe5 W1'
_cell_volume   69.73438290
loop_
 _symmetry_equiv_pos_site_id
 _symmetry_equiv_pos_as_xyz
  1  'x, y, z'
loop_
 _atom_type_symbol
  Fe
  W
loop_
 _atom_site_type_symbol
 _atom_site_label
 _atom_site_symmetry_multiplicity
 _atom_site_fract_x
 _atom_site_fract_y
 _atom_site_fract_z
 _atom_site_occupancy
  Fe  Fe0  1  0.00615080  0.98769840  0.00000000  1
  Fe  Fe1  1  0.66614388  0.66771225  0.00000000  1
  Fe  Fe2  1  0.32425836  0.35148328  0.00000000  1
  Fe  Fe3  1  0.56287246  0.87425508  0.50000000  1
  Fe  Fe4  1  0.21596587  0.56806827  0.50000000  1
  W  W0  1  0.89127530  0.21744939  0.50000000  1
