# generated using pymatgen
data_1865_Al2K2
_symmetry_space_group_name_H-M   'Cmcm'
_cell_length_a   10.16711792
_cell_length_b   10.16711792
_cell_length_c   4.14093298
_cell_angle_alpha   90.00000000
_cell_angle_beta   90.00000000
_cell_angle_gamma   160.77623962
_chemical_formula_structural   Al2K2
_chemical_formula_sum   'Al2 K2'
_cell_volume   140.93880541
loop_
 _symmetry_equiv_pos_site_id
 _symmetry_equiv_pos_as_xyz
  1  'x, y, z'
loop_
 _atom_type_symbol
  Al
  K
loop_
 _atom_site_type_symbol
 _atom_site_label
 _atom_site_symmetry_multiplicity
 _atom_site_fract_x
 _atom_site_fract_y
 _atom_site_fract_z
 _atom_site_occupancy
  Al  Al0  1  0.77190343  0.22809657  0.75000000  1
  Al  Al1  1  0.22809657  0.77190343  0.25000000  1
  K  K0  1  0.59891301  0.40108699  0.75000000  1
  K  K1  1  0.40108699  0.59891301  0.25000000  1
