# generated using pymatgen
data_1866_NiPa
_symmetry_space_group_name_H-M   'P-6m2'
_cell_length_a   3.19039200
_cell_length_b   3.19040800
_cell_length_c   4.17910200
_cell_angle_alpha   90.00000000
_cell_angle_beta   90.00000000
_cell_angle_gamma   119.99983406
_chemical_formula_structural   NiPa
_chemical_formula_sum   'Ni1 Pa1'
_cell_volume   36.83872603
loop_
 _symmetry_equiv_pos_site_id
 _symmetry_equiv_pos_as_xyz
  1  'x, y, z'
loop_
 _atom_type_symbol
  Ni
  Pa
loop_
 _atom_site_type_symbol
 _atom_site_label
 _atom_site_symmetry_multiplicity
 _atom_site_fract_x
 _atom_site_fract_y
 _atom_site_fract_z
 _atom_site_occupancy
  Ni  Ni0  1  0.66666922  0.33333581  0.75000083  1
  Pa  Pa0  1  0.33333220  0.66666439  0.25000107  1
