# generated using pymatgen
data_186_Ir2Mo6
_symmetry_space_group_name_H-M   'Cmcm'
_cell_length_a   5.48704134
_cell_length_b   5.48704134
_cell_length_c   4.25564789
_cell_angle_alpha   90.00000000
_cell_angle_beta   90.00000000
_cell_angle_gamma   76.74706666
_chemical_formula_structural   Ir2Mo6
_chemical_formula_sum   'Ir2 Mo6'
_cell_volume   124.71508971
loop_
 _symmetry_equiv_pos_site_id
 _symmetry_equiv_pos_as_xyz
  1  'x, y, z'
loop_
 _atom_type_symbol
  Ir
  Mo
loop_
 _atom_site_type_symbol
 _atom_site_label
 _atom_site_symmetry_multiplicity
 _atom_site_fract_x
 _atom_site_fract_y
 _atom_site_fract_z
 _atom_site_occupancy
  Ir  Ir0  1  0.39586715  0.39586715  0.25000000  1
  Ir  Ir1  1  0.60413285  0.60413285  0.75000000  1
  Mo  Mo0  1  0.10932168  0.64865227  0.75000000  1
  Mo  Mo1  1  0.14230608  0.14230608  0.75000000  1
  Mo  Mo2  1  0.35134773  0.89067832  0.25000000  1
  Mo  Mo3  1  0.64865227  0.10932168  0.75000000  1
  Mo  Mo4  1  0.85769392  0.85769392  0.25000000  1
  Mo  Mo5  1  0.89067832  0.35134773  0.25000000  1
