# generated using pymatgen
data_1871_FeSb
_symmetry_space_group_name_H-M   'P-6m2'
_cell_length_a   3.58093528
_cell_length_b   3.58082635
_cell_length_c   3.26952149
_cell_angle_alpha   90.00000000
_cell_angle_beta   90.00000000
_cell_angle_gamma   120.00100630
_chemical_formula_structural   FeSb
_chemical_formula_sum   'Fe1 Sb1'
_cell_volume   36.30698256
loop_
 _symmetry_equiv_pos_site_id
 _symmetry_equiv_pos_as_xyz
  1  'x, y, z'
loop_
 _atom_type_symbol
  Fe
  Sb
loop_
 _atom_site_type_symbol
 _atom_site_label
 _atom_site_symmetry_multiplicity
 _atom_site_fract_x
 _atom_site_fract_y
 _atom_site_fract_z
 _atom_site_occupancy
  Fe  Fe0  1  0.66667110  0.33334155  0.75000129  1
  Sb  Sb0  1  0.33333017  0.66666034  0.25000043  1
