# generated using pymatgen
data_1874_Au4Sr2
_symmetry_space_group_name_H-M   'Imma'
_cell_length_a   4.77858200
_cell_length_b   6.06707581
_cell_length_c   6.06707581
_cell_angle_alpha   94.41997139
_cell_angle_beta   113.19194056
_cell_angle_gamma   66.80805944
_chemical_formula_structural   Au4Sr2
_chemical_formula_sum   'Au4 Sr2'
_cell_volume   147.98222722
loop_
 _symmetry_equiv_pos_site_id
 _symmetry_equiv_pos_as_xyz
  1  'x, y, z'
loop_
 _atom_type_symbol
  Au
  Sr
loop_
 _atom_site_type_symbol
 _atom_site_label
 _atom_site_symmetry_multiplicity
 _atom_site_fract_x
 _atom_site_fract_y
 _atom_site_fract_z
 _atom_site_occupancy
  Au  Au0  1  0.04566784  0.11779664  0.20913232  1
  Au  Au1  1  0.54566760  0.29086696  0.38220264  1
  Au  Au2  1  0.45433192  0.70913281  0.61779713  1
  Au  Au3  1  0.95433168  0.88220314  0.79086746  1
  Sr  Sr0  1  0.74999891  0.71040699  0.21040577  1
  Sr  Sr1  1  0.25000061  0.28959278  0.78959401  1
