# generated using pymatgen
data_1879_Al2Rh
_symmetry_space_group_name_H-M   'I4/mmm'
_cell_length_a   4.75139381
_cell_length_b   4.75139381
_cell_length_c   4.75139381
_cell_angle_alpha   140.61900209
_cell_angle_beta   140.61900209
_cell_angle_gamma   56.91462735
_chemical_formula_structural   Al2Rh
_chemical_formula_sum   'Al2 Rh1'
_cell_volume   42.82526047
loop_
 _symmetry_equiv_pos_site_id
 _symmetry_equiv_pos_as_xyz
  1  'x, y, z'
loop_
 _atom_type_symbol
  Al
  Rh
loop_
 _atom_site_type_symbol
 _atom_site_label
 _atom_site_symmetry_multiplicity
 _atom_site_fract_x
 _atom_site_fract_y
 _atom_site_fract_z
 _atom_site_occupancy
  Al  Al0  1  0.15999073  0.15999073  0.00000000  1
  Al  Al1  1  0.84000927  0.84000927  0.00000000  1
  Rh  Rh0  1  0.50000000  0.50000000  0.00000000  1
