# generated using pymatgen
data_1883_Cu4Ge2
_symmetry_space_group_name_H-M   'Pnnm'
_cell_length_a   4.20346229
_cell_length_b   2.79429814
_cell_length_c   7.04367910
_cell_angle_alpha   90.00000000
_cell_angle_beta   90.00000000
_cell_angle_gamma   90.00000000
_chemical_formula_structural   Cu4Ge2
_chemical_formula_sum   'Cu4 Ge2'
_cell_volume   82.73313079
loop_
 _symmetry_equiv_pos_site_id
 _symmetry_equiv_pos_as_xyz
  1  'x, y, z'
loop_
 _atom_type_symbol
  Cu
  Ge
loop_
 _atom_site_type_symbol
 _atom_site_label
 _atom_site_symmetry_multiplicity
 _atom_site_fract_x
 _atom_site_fract_y
 _atom_site_fract_z
 _atom_site_occupancy
  Cu  Cu0  1  0.00000000  0.27298885  0.66739232  1
  Cu  Cu1  1  0.00000000  0.72701115  0.33260768  1
  Cu  Cu2  1  0.50000000  0.77298885  0.83260768  1
  Cu  Cu3  1  0.50000000  0.22701115  0.16739232  1
  Ge  Ge0  1  0.00000000  0.00000000  0.00000000  1
  Ge  Ge1  1  0.50000000  0.50000000  0.50000000  1
