# generated using pymatgen
data_1884_Al12K12
_symmetry_space_group_name_H-M   'Pbcm'
_cell_length_a   5.55395551
_cell_length_b   12.33364900
_cell_length_c   12.92452724
_cell_angle_alpha   90.00000000
_cell_angle_beta   90.00000000
_cell_angle_gamma   90.00000000
_chemical_formula_structural   Al12K12
_chemical_formula_sum   'Al12 K12'
_cell_volume   885.33706703
loop_
 _symmetry_equiv_pos_site_id
 _symmetry_equiv_pos_as_xyz
  1  'x, y, z'
loop_
 _atom_type_symbol
  Al
  K
loop_
 _atom_site_type_symbol
 _atom_site_label
 _atom_site_symmetry_multiplicity
 _atom_site_fract_x
 _atom_site_fract_y
 _atom_site_fract_z
 _atom_site_occupancy
  Al  Al0  1  0.25000000  0.21038973  0.12161832  1
  Al  Al1  1  0.75000000  0.78961027  0.87838168  1
  Al  Al2  1  0.25000000  0.71038973  0.87838168  1
  Al  Al3  1  0.75000000  0.28961027  0.12161832  1
  Al  Al4  1  0.25000000  0.51464750  0.47180332  1
  Al  Al5  1  0.75000000  0.48535250  0.52819668  1
  Al  Al6  1  0.25000000  0.01464750  0.52819668  1
  Al  Al7  1  0.75000000  0.98535250  0.47180332  1
  Al  Al8  1  0.00000000  0.75000000  0.05595349  1
  Al  Al9  1  0.50000000  0.25000000  0.94404651  1
  Al  Al10  1  0.00000000  0.25000000  0.94404651  1
  Al  Al11  1  0.50000000  0.75000000  0.05595349  1
  K  K0  1  0.25000000  0.48756115  0.11799052  1
  K  K1  1  0.75000000  0.51243885  0.88200948  1
  K  K2  1  0.25000000  0.98756115  0.88200948  1
  K  K3  1  0.75000000  0.01243885  0.11799052  1
  K  K4  1  0.25000000  0.87456760  0.29638868  1
  K  K5  1  0.75000000  0.12543240  0.70361132  1
  K  K6  1  0.25000000  0.37456760  0.70361132  1
  K  K7  1  0.75000000  0.62543240  0.29638868  1
  K  K8  1  0.00000000  0.75000000  0.61951607  1
  K  K9  1  0.50000000  0.25000000  0.38048393  1
  K  K10  1  0.00000000  0.25000000  0.38048393  1
  K  K11  1  0.50000000  0.75000000  0.61951607  1
