# generated using pymatgen
data_1885_Sb2Ge2
_symmetry_space_group_name_H-M   'Imma'
_cell_length_a   6.00827730
_cell_length_b   6.00827730
_cell_length_c   6.00827730
_cell_angle_alpha   145.73335051
_cell_angle_beta   130.28269041
_cell_angle_gamma   61.77173235
_chemical_formula_structural   Sb2Ge2
_chemical_formula_sum   'Ge2 Sb2'
_cell_volume   92.20713276
loop_
 _symmetry_equiv_pos_site_id
 _symmetry_equiv_pos_as_xyz
  1  'x, y, z'
loop_
 _atom_type_symbol
  Ge
  Sb
loop_
 _atom_site_type_symbol
 _atom_site_label
 _atom_site_symmetry_multiplicity
 _atom_site_fract_x
 _atom_site_fract_y
 _atom_site_fract_z
 _atom_site_occupancy
  Ge  Ge0  1  0.38818218  0.63818218  0.25000000  1
  Ge  Ge1  1  0.61181782  0.36181782  0.75000000  1
  Sb  Sb0  1  0.86315545  0.11315545  0.25000000  1
  Sb  Sb1  1  0.13684455  0.88684455  0.75000000  1
