# generated using pymatgen
data_1887_Fe5Pd
_symmetry_space_group_name_H-M   'F-43m'
_cell_length_a   4.69287322
_cell_length_b   4.69287322
_cell_length_c   4.69287322
_cell_angle_alpha   60.00000000
_cell_angle_beta   60.00000000
_cell_angle_gamma   60.00000000
_chemical_formula_structural   Fe5Pd
_chemical_formula_sum   'Fe5 Pd1'
_cell_volume   73.08049300
loop_
 _symmetry_equiv_pos_site_id
 _symmetry_equiv_pos_as_xyz
  1  'x, y, z'
loop_
 _atom_type_symbol
  Fe
  Pd
loop_
 _atom_site_type_symbol
 _atom_site_label
 _atom_site_symmetry_multiplicity
 _atom_site_fract_x
 _atom_site_fract_y
 _atom_site_fract_z
 _atom_site_occupancy
  Fe  Fe0  1  0.37548829  0.37548829  0.37548829  1
  Fe  Fe1  1  0.75000000  0.75000000  0.75000000  1
  Fe  Fe2  1  0.37548829  0.37548829  0.87353512  1
  Fe  Fe3  1  0.87353512  0.37548829  0.37548829  1
  Fe  Fe4  1  0.37548829  0.87353512  0.37548829  1
  Pd  Pd0  1  0.00000000  0.00000000  0.00000000  1
