# generated using pymatgen
data_188_BiBr
_symmetry_space_group_name_H-M   'P-6m2'
_cell_length_a   3.62948369
_cell_length_b   3.62948510
_cell_length_c   5.12355310
_cell_angle_alpha   90.00000000
_cell_angle_beta   90.00000000
_cell_angle_gamma   119.99999618
_chemical_formula_structural   BiBr
_chemical_formula_sum   'Bi1 Br1'
_cell_volume   58.45097460
loop_
 _symmetry_equiv_pos_site_id
 _symmetry_equiv_pos_as_xyz
  1  'x, y, z'
loop_
 _atom_type_symbol
  Bi
  Br
loop_
 _atom_site_type_symbol
 _atom_site_label
 _atom_site_symmetry_multiplicity
 _atom_site_fract_x
 _atom_site_fract_y
 _atom_site_fract_z
 _atom_site_occupancy
  Bi  Bi0  1  0.66666637  0.33333174  0.75000000  1
  Br  Br0  1  0.33333363  0.66666826  0.25000000  1
