# generated using pymatgen
data_1891_Au5Mn
_symmetry_space_group_name_H-M   'Cmmm'
_cell_length_a   4.15450430
_cell_length_b   6.50151753
_cell_length_c   4.14468567
_cell_angle_alpha   90.00000000
_cell_angle_beta   90.00000000
_cell_angle_gamma   71.36714941
_chemical_formula_structural   Au5Mn
_chemical_formula_sum   'Au5 Mn1'
_cell_volume   106.08253788
loop_
 _symmetry_equiv_pos_site_id
 _symmetry_equiv_pos_as_xyz
  1  'x, y, z'
loop_
 _atom_type_symbol
  Au
  Mn
loop_
 _atom_site_type_symbol
 _atom_site_label
 _atom_site_symmetry_multiplicity
 _atom_site_fract_x
 _atom_site_fract_y
 _atom_site_fract_z
 _atom_site_occupancy
  Au  Au0  1  0.19135486  0.61729029  0.50000000  1
  Au  Au1  1  0.36634588  0.26730824  0.00000000  1
  Au  Au2  1  0.52789082  0.94421836  0.50000000  1
  Au  Au3  1  0.68918633  0.62162735  0.00000000  1
  Au  Au4  1  0.86450650  0.27098701  0.50000000  1
  Mn  Mn0  1  0.02738229  0.94523542  0.00000000  1
