# generated using pymatgen
data_1894_Cr2W
_symmetry_space_group_name_H-M   'I4/mmm'
_cell_length_a   2.98458802
_cell_length_b   4.92432285
_cell_length_c   2.98458802
_cell_angle_alpha   72.35938332
_cell_angle_beta   90.00000000
_cell_angle_gamma   107.64061668
_chemical_formula_structural   Cr2W
_chemical_formula_sum   'Cr2 W1'
_cell_volume   39.63212263
loop_
 _symmetry_equiv_pos_site_id
 _symmetry_equiv_pos_as_xyz
  1  'x, y, z'
loop_
 _atom_type_symbol
  Cr
  W
loop_
 _atom_site_type_symbol
 _atom_site_label
 _atom_site_symmetry_multiplicity
 _atom_site_fract_x
 _atom_site_fract_y
 _atom_site_fract_z
 _atom_site_occupancy
  Cr  Cr0  1  0.99505403  0.99010805  0.00494597  1
  Cr  Cr1  1  0.33827931  0.67655861  0.66172069  1
  W  W0  1  0.66666667  0.33333333  0.33333333  1
