# generated using pymatgen
data_1896_Cr5Nb
_symmetry_space_group_name_H-M   'Cmmm'
_cell_length_a   4.87752304
_cell_length_b   4.87752304
_cell_length_c   4.13540512
_cell_angle_alpha   90.00000000
_cell_angle_beta   90.00000000
_cell_angle_gamma   129.75829867
_chemical_formula_structural   Cr5Nb
_chemical_formula_sum   'Cr5 Nb1'
_cell_volume   75.63127156
loop_
 _symmetry_equiv_pos_site_id
 _symmetry_equiv_pos_as_xyz
  1  'x, y, z'
loop_
 _atom_type_symbol
  Cr
  Nb
loop_
 _atom_site_type_symbol
 _atom_site_label
 _atom_site_symmetry_multiplicity
 _atom_site_fract_x
 _atom_site_fract_y
 _atom_site_fract_z
 _atom_site_occupancy
  Cr  Cr0  1  0.80009307  0.19990693  0.50000000  1
  Cr  Cr1  1  0.64329286  0.35670714  0.00000000  1
  Cr  Cr2  1  0.47219196  0.52780804  0.50000000  1
  Cr  Cr3  1  0.30117353  0.69882647  0.00000000  1
  Cr  Cr4  1  0.14434785  0.85565215  0.50000000  1
  Nb  Nb0  1  0.97223406  0.02776594  0.00000000  1
