# generated using pymatgen
data_18_InSn5
_symmetry_space_group_name_H-M   'Cm'
_cell_length_a   6.56134936
_cell_length_b   6.56134936
_cell_length_c   8.04218220
_cell_angle_alpha   74.86034676
_cell_angle_beta   74.86034676
_cell_angle_gamma   29.66847962
_chemical_formula_structural   InSn5
_chemical_formula_sum   'In1 Sn5'
_cell_volume   165.00205652
loop_
 _symmetry_equiv_pos_site_id
 _symmetry_equiv_pos_as_xyz
  1  'x, y, z'
loop_
 _atom_type_symbol
  In
  Sn
loop_
 _atom_site_type_symbol
 _atom_site_label
 _atom_site_symmetry_multiplicity
 _atom_site_fract_x
 _atom_site_fract_y
 _atom_site_fract_z
 _atom_site_occupancy
  In  In0  1  0.99986214  0.99986214  0.99989523  1
  Sn  Sn0  1  0.33258525  0.33258525  0.33501670  1
  Sn  Sn1  1  0.66778202  0.66778202  0.66468923  1
  Sn  Sn2  1  0.61143486  0.61143486  0.27840347  1
  Sn  Sn3  1  0.94417811  0.94417811  0.61092751  1
  Sn  Sn4  1  0.27749095  0.27749095  0.94440120  1
