# generated using pymatgen
data_1901_Ir2Na
_symmetry_space_group_name_H-M   'Immm'
_cell_length_a   5.81581306
_cell_length_b   5.81581306
_cell_length_c   5.81581306
_cell_angle_alpha   153.07379768
_cell_angle_beta   139.25557255
_cell_angle_gamma   49.51725647
_chemical_formula_structural   Ir2Na
_chemical_formula_sum   'Ir2 Na1'
_cell_volume   57.91084347
loop_
 _symmetry_equiv_pos_site_id
 _symmetry_equiv_pos_as_xyz
  1  'x, y, z'
loop_
 _atom_type_symbol
  Ir
  Na
loop_
 _atom_site_type_symbol
 _atom_site_label
 _atom_site_symmetry_multiplicity
 _atom_site_fract_x
 _atom_site_fract_y
 _atom_site_fract_z
 _atom_site_occupancy
  Ir  Ir0  1  0.28538987  0.28538987  1.00000000  1
  Ir  Ir1  1  0.71461013  0.71461013  1.00000000  1
  Na  Na0  1  0.00000000  0.00000000  0.00000000  1
