# generated using pymatgen
data_1902_Ni2Sb2
_symmetry_space_group_name_H-M   'P4/nmm'
_cell_length_a   3.25069964
_cell_length_b   3.25069964
_cell_length_c   7.24559374
_cell_angle_alpha   90.00000000
_cell_angle_beta   90.00000000
_cell_angle_gamma   90.00000000
_chemical_formula_structural   Ni2Sb2
_chemical_formula_sum   'Ni2 Sb2'
_cell_volume   76.56453792
loop_
 _symmetry_equiv_pos_site_id
 _symmetry_equiv_pos_as_xyz
  1  'x, y, z'
loop_
 _atom_type_symbol
  Ni
  Sb
loop_
 _atom_site_type_symbol
 _atom_site_label
 _atom_site_symmetry_multiplicity
 _atom_site_fract_x
 _atom_site_fract_y
 _atom_site_fract_z
 _atom_site_occupancy
  Ni  Ni0  1  0.25000000  0.25000000  0.09203546  1
  Ni  Ni1  1  0.75000000  0.75000000  0.90796454  1
  Sb  Sb0  1  0.25000000  0.25000000  0.72379152  1
  Sb  Sb1  1  0.75000000  0.75000000  0.27620848  1
