# generated using pymatgen
data_1903_CrNb3
_symmetry_space_group_name_H-M   'Cmmm'
_cell_length_a   2.82084769
_cell_length_b   2.82084769
_cell_length_c   8.84493814
_cell_angle_alpha   90.00000000
_cell_angle_beta   90.00000000
_cell_angle_gamma   110.83106832
_chemical_formula_structural   CrNb3
_chemical_formula_sum   'Cr1 Nb3'
_cell_volume   65.78019850
loop_
 _symmetry_equiv_pos_site_id
 _symmetry_equiv_pos_as_xyz
  1  'x, y, z'
loop_
 _atom_type_symbol
  Cr
  Nb
loop_
 _atom_site_type_symbol
 _atom_site_label
 _atom_site_symmetry_multiplicity
 _atom_site_fract_x
 _atom_site_fract_y
 _atom_site_fract_z
 _atom_site_occupancy
  Cr  Cr0  1  0.00000000  0.00000000  0.00000000  1
  Nb  Nb0  1  0.00000000  0.00000000  0.50000000  1
  Nb  Nb1  1  0.50000000  0.50000000  0.22748680  1
  Nb  Nb2  1  0.50000000  0.50000000  0.77251320  1
