# generated using pymatgen
data_1905_GaNp
_symmetry_space_group_name_H-M   'R -3 m'
_cell_length_a   5.48062861
_cell_length_b   5.48062861
_cell_length_c   5.48062849
_cell_angle_alpha   30.46029349
_cell_angle_beta   30.46029349
_cell_angle_gamma   30.46029089
_chemical_formula_structural   GaNp
_chemical_formula_sum   'Ga1 Np1'
_cell_volume   37.50001451
loop_
 _symmetry_equiv_pos_site_id
 _symmetry_equiv_pos_as_xyz
  1  'x, y, z'
loop_
 _atom_type_symbol
  Ga
  Np
loop_
 _atom_site_type_symbol
 _atom_site_label
 _atom_site_symmetry_multiplicity
 _atom_site_fract_x
 _atom_site_fract_y
 _atom_site_fract_z
 _atom_site_occupancy
  Ga  Ga0  1  0.00000000  0.00000000  0.00000000  1
  Np  Np0  1  0.49999972  0.49999972  0.50000034  1
