# generated using pymatgen
data_1906_InV
_symmetry_space_group_name_H-M   'P4/mmm'
_cell_length_a   2.85909550
_cell_length_b   4.04337361
_cell_length_c   4.22673138
_cell_angle_alpha   90.00000000
_cell_angle_beta   90.00000000
_cell_angle_gamma   45.00000014
_chemical_formula_structural   InV
_chemical_formula_sum   'In1 V1'
_cell_volume   34.55112441
loop_
 _symmetry_equiv_pos_site_id
 _symmetry_equiv_pos_as_xyz
  1  'x, y, z'
loop_
 _atom_type_symbol
  In
  V
loop_
 _atom_site_type_symbol
 _atom_site_label
 _atom_site_symmetry_multiplicity
 _atom_site_fract_x
 _atom_site_fract_y
 _atom_site_fract_z
 _atom_site_occupancy
  In  In0  1  0.00000000  0.00000000  0.00000000  1
  V  V0  1  0.99999831  0.49999898  0.50000118  1
