# generated using pymatgen
data_1909_KPb
_symmetry_space_group_name_H-M   'P4/mmm'
_cell_length_a   3.53141115
_cell_length_b   3.53141115
_cell_length_c   5.78090294
_cell_angle_alpha   90.00000000
_cell_angle_beta   90.00000000
_cell_angle_gamma   90.63098957
_chemical_formula_structural   KPb
_chemical_formula_sum   'K1 Pb1'
_cell_volume   72.08848672
loop_
 _symmetry_equiv_pos_site_id
 _symmetry_equiv_pos_as_xyz
  1  'x, y, z'
loop_
 _atom_type_symbol
  K
  Pb
loop_
 _atom_site_type_symbol
 _atom_site_label
 _atom_site_symmetry_multiplicity
 _atom_site_fract_x
 _atom_site_fract_y
 _atom_site_fract_z
 _atom_site_occupancy
  K  K0  1  0.00000000  0.00000000  0.00000000  1
  Pb  Pb0  1  0.50000000  0.50000000  0.50000000  1
