# generated using pymatgen
data_1915_K2Sn4
_symmetry_space_group_name_H-M   'I4_1/amd'
_cell_length_a   9.18211194
_cell_length_b   9.18211194
_cell_length_c   9.18211194
_cell_angle_alpha   146.78820730
_cell_angle_beta   146.48252653
_cell_angle_gamma   47.90444498
_chemical_formula_structural   K2Sn4
_chemical_formula_sum   'K2 Sn4'
_cell_volume   233.20064035
loop_
 _symmetry_equiv_pos_site_id
 _symmetry_equiv_pos_as_xyz
  1  'x, y, z'
loop_
 _atom_type_symbol
  K
  Sn
loop_
 _atom_site_type_symbol
 _atom_site_label
 _atom_site_symmetry_multiplicity
 _atom_site_fract_x
 _atom_site_fract_y
 _atom_site_fract_z
 _atom_site_occupancy
  K  K0  1  0.12493510  0.37493510  0.75000000  1
  K  K1  1  0.87506490  0.62506490  0.25000000  1
  Sn  Sn0  1  0.71184133  0.96184133  0.75000000  1
  Sn  Sn1  1  0.28815867  0.03815867  0.25000000  1
  Sn  Sn2  1  0.53878986  0.78878986  0.75000000  1
  Sn  Sn3  1  0.46121014  0.21121014  0.25000000  1
