# generated using pymatgen
data_1929_Pb2Sb2
_symmetry_space_group_name_H-M   'Imma'
_cell_length_a   6.47507351
_cell_length_b   6.47507351
_cell_length_c   6.47507351
_cell_angle_alpha   144.27879906
_cell_angle_beta   129.73874630
_cell_angle_gamma   63.18215463
_chemical_formula_structural   Pb2Sb2
_chemical_formula_sum   'Pb2 Sb2'
_cell_volume   120.48091462
loop_
 _symmetry_equiv_pos_site_id
 _symmetry_equiv_pos_as_xyz
  1  'x, y, z'
loop_
 _atom_type_symbol
  Pb
  Sb
loop_
 _atom_site_type_symbol
 _atom_site_label
 _atom_site_symmetry_multiplicity
 _atom_site_fract_x
 _atom_site_fract_y
 _atom_site_fract_z
 _atom_site_occupancy
  Pb  Pb0  1  0.01590483  0.01590483  1.00000000  1
  Pb  Pb1  1  0.73409517  0.23409517  0.50000000  1
  Sb  Sb0  1  0.47941305  0.47941305  1.00000000  1
  Sb  Sb1  1  0.27058695  0.77058695  0.50000000  1
