# generated using pymatgen
data_1933_Ni2Rh2
_symmetry_space_group_name_H-M   'Cmme'
_cell_length_a   2.59543284
_cell_length_b   2.59543284
_cell_length_c   8.62412261
_cell_angle_alpha   90.00000000
_cell_angle_beta   90.00000000
_cell_angle_gamma   118.67623454
_chemical_formula_structural   Ni2Rh2
_chemical_formula_sum   'Ni2 Rh2'
_cell_volume   50.96887580
loop_
 _symmetry_equiv_pos_site_id
 _symmetry_equiv_pos_as_xyz
  1  'x, y, z'
loop_
 _atom_type_symbol
  Ni
  Rh
loop_
 _atom_site_type_symbol
 _atom_site_label
 _atom_site_symmetry_multiplicity
 _atom_site_fract_x
 _atom_site_fract_y
 _atom_site_fract_z
 _atom_site_occupancy
  Ni  Ni0  1  1.00000000  1.00000000  0.99047524  1
  Ni  Ni1  1  0.50000000  0.50000000  0.75952476  1
  Rh  Rh0  1  0.00000000  0.00000000  0.50881772  1
  Rh  Rh1  1  0.50000000  0.50000000  0.24118228  1
