# generated using pymatgen
data_1935_Na7Pt
_symmetry_space_group_name_H-M   'Fm -3 m'
_cell_length_a   6.69746203
_cell_length_b   6.69746203
_cell_length_c   6.69746203
_cell_angle_alpha   60.00000000
_cell_angle_beta   60.00000000
_cell_angle_gamma   60.00000000
_chemical_formula_structural   Na7Pt
_chemical_formula_sum   'Na7 Pt1'
_cell_volume   212.42996771
loop_
 _symmetry_equiv_pos_site_id
 _symmetry_equiv_pos_as_xyz
  1  'x, y, z'
loop_
 _atom_type_symbol
  Na
  Pt
loop_
 _atom_site_type_symbol
 _atom_site_label
 _atom_site_symmetry_multiplicity
 _atom_site_fract_x
 _atom_site_fract_y
 _atom_site_fract_z
 _atom_site_occupancy
  Na  Na0  1  0.50000000  0.00000000  0.50000000  1
  Na  Na1  1  0.00000000  0.50000000  0.50000000  1
  Na  Na2  1  0.00000000  0.00000000  0.50000000  1
  Na  Na3  1  0.00000000  0.50000000  0.00000000  1
  Na  Na4  1  0.50000000  0.00000000  0.00000000  1
  Na  Na5  1  0.50000000  0.50000000  0.00000000  1
  Na  Na6  1  0.50000000  0.50000000  0.50000000  1
  Pt  Pt0  1  0.00000000  0.00000000  0.00000000  1
