# generated using pymatgen
data_1940_Al3Cr
_symmetry_space_group_name_H-M   'I4/mmm'
_cell_length_a   4.84003813
_cell_length_b   4.84003813
_cell_length_c   4.84003813
_cell_angle_alpha   134.10112809
_cell_angle_beta   134.10112809
_cell_angle_gamma   66.93009804
_chemical_formula_structural   Al3Cr
_chemical_formula_sum   'Al3 Cr1'
_cell_volume   57.52228351
loop_
 _symmetry_equiv_pos_site_id
 _symmetry_equiv_pos_as_xyz
  1  'x, y, z'
loop_
 _atom_type_symbol
  Al
  Cr
loop_
 _atom_site_type_symbol
 _atom_site_label
 _atom_site_symmetry_multiplicity
 _atom_site_fract_x
 _atom_site_fract_y
 _atom_site_fract_z
 _atom_site_occupancy
  Al  Al0  1  0.50000021  0.50000021  0.00000000  1
  Al  Al1  1  0.74999929  0.24999949  0.49999981  1
  Al  Al2  1  0.24999949  0.74999929  0.49999981  1
  Cr  Cr0  1  0.00000000  0.00000000  0.00000000  1
