# generated using pymatgen
data_1942_Pd4Ta26
_symmetry_space_group_name_H-M   'P4_2/mnm'
_cell_length_a   10.13696846
_cell_length_b   10.13696846
_cell_length_c   5.35596637
_cell_angle_alpha   90.00000000
_cell_angle_beta   90.00000000
_cell_angle_gamma   90.00000000
_chemical_formula_structural   Pd4Ta26
_chemical_formula_sum   'Pd4 Ta26'
_cell_volume   550.36908616
loop_
 _symmetry_equiv_pos_site_id
 _symmetry_equiv_pos_as_xyz
  1  'x, y, z'
loop_
 _atom_type_symbol
  Pd
  Ta
loop_
 _atom_site_type_symbol
 _atom_site_label
 _atom_site_symmetry_multiplicity
 _atom_site_fract_x
 _atom_site_fract_y
 _atom_site_fract_z
 _atom_site_occupancy
  Pd  Pd0  1  0.39818589  0.60181411  0.00000000  1
  Pd  Pd1  1  0.60181411  0.39818589  0.00000000  1
  Pd  Pd2  1  0.89818589  0.89818589  0.50000000  1
  Pd  Pd3  1  0.10181411  0.10181411  0.50000000  1
  Ta  Ta0  1  0.00000000  0.00000000  0.00000000  1
  Ta  Ta1  1  0.50000000  0.50000000  0.50000000  1
  Ta  Ta2  1  0.13654961  0.53520635  0.00000000  1
  Ta  Ta3  1  0.86345039  0.46479365  0.00000000  1
  Ta  Ta4  1  0.96479365  0.63654961  0.50000000  1
  Ta  Ta5  1  0.03520635  0.36345039  0.50000000  1
  Ta  Ta6  1  0.36345039  0.03520635  0.50000000  1
  Ta  Ta7  1  0.63654961  0.96479365  0.50000000  1
  Ta  Ta8  1  0.53520635  0.13654961  0.00000000  1
  Ta  Ta9  1  0.46479365  0.86345039  0.00000000  1
  Ta  Ta10  1  0.06257401  0.26681482  0.00000000  1
  Ta  Ta11  1  0.93742599  0.73318518  0.00000000  1
  Ta  Ta12  1  0.23318518  0.56257401  0.50000000  1
  Ta  Ta13  1  0.76681482  0.43742599  0.50000000  1
  Ta  Ta14  1  0.43742599  0.76681482  0.50000000  1
  Ta  Ta15  1  0.56257401  0.23318518  0.50000000  1
  Ta  Ta16  1  0.26681482  0.06257401  0.00000000  1
  Ta  Ta17  1  0.73318518  0.93742599  0.00000000  1
  Ta  Ta18  1  0.31620080  0.31620080  0.24916363  1
  Ta  Ta19  1  0.68379920  0.68379920  0.24916363  1
  Ta  Ta20  1  0.18379920  0.81620080  0.74916363  1
  Ta  Ta21  1  0.81620080  0.18379920  0.74916363  1
  Ta  Ta22  1  0.18379920  0.81620080  0.25083637  1
  Ta  Ta23  1  0.81620080  0.18379920  0.25083637  1
  Ta  Ta24  1  0.31620080  0.31620080  0.75083637  1
  Ta  Ta25  1  0.68379920  0.68379920  0.75083637  1
