# generated using pymatgen
data_1945_RbU
_symmetry_space_group_name_H-M   'P-6m2'
_cell_length_a   3.20108720
_cell_length_b   3.20104556
_cell_length_c   7.26579321
_cell_angle_alpha   90.00000000
_cell_angle_beta   90.00000000
_cell_angle_gamma   120.00043034
_chemical_formula_structural   RbU
_chemical_formula_sum   'Rb1 U1'
_cell_volume   64.47645356
loop_
 _symmetry_equiv_pos_site_id
 _symmetry_equiv_pos_as_xyz
  1  'x, y, z'
loop_
 _atom_type_symbol
  Rb
  U
loop_
 _atom_site_type_symbol
 _atom_site_label
 _atom_site_symmetry_multiplicity
 _atom_site_fract_x
 _atom_site_fract_y
 _atom_site_fract_z
 _atom_site_occupancy
  Rb  Rb0  1  0.66664701  0.33329276  0.74999946  1
  U  U0  1  0.33335399  0.66670788  0.24999936  1
