# generated using pymatgen
data_1956_Sr8W4
_symmetry_space_group_name_H-M   'Pa -3'
_cell_length_a   7.86816635
_cell_length_b   7.86816635
_cell_length_c   7.86816635
_cell_angle_alpha   90.00000000
_cell_angle_beta   90.00000000
_cell_angle_gamma   90.00000000
_chemical_formula_structural   Sr8W4
_chemical_formula_sum   'Sr8 W4'
_cell_volume   487.10277059
loop_
 _symmetry_equiv_pos_site_id
 _symmetry_equiv_pos_as_xyz
  1  'x, y, z'
loop_
 _atom_type_symbol
  Sr
  W
loop_
 _atom_site_type_symbol
 _atom_site_label
 _atom_site_symmetry_multiplicity
 _atom_site_fract_x
 _atom_site_fract_y
 _atom_site_fract_z
 _atom_site_occupancy
  Sr  Sr0  1  0.65743195  0.65743195  0.34256805  1
  Sr  Sr1  1  0.34256805  0.34256805  0.65743195  1
  Sr  Sr2  1  0.15743195  0.84256805  0.65743195  1
  Sr  Sr3  1  0.84256805  0.15743195  0.34256805  1
  Sr  Sr4  1  0.34256805  0.15743195  0.15743195  1
  Sr  Sr5  1  0.65743195  0.84256805  0.84256805  1
  Sr  Sr6  1  0.84256805  0.34256805  0.84256805  1
  Sr  Sr7  1  0.15743195  0.65743195  0.15743195  1
  W  W0  1  0.00000000  0.00000000  0.00000000  1
  W  W1  1  0.50000000  0.50000000  0.00000000  1
  W  W2  1  0.50000000  0.00000000  0.50000000  1
  W  W3  1  0.00000000  0.50000000  0.50000000  1
