# generated using pymatgen
data_1967_Ag2In4
_symmetry_space_group_name_H-M   'I4/mcm'
_cell_length_a   5.79232583
_cell_length_b   5.79232583
_cell_length_c   5.79232583
_cell_angle_alpha   104.16744637
_cell_angle_beta   104.16744637
_cell_angle_gamma   120.69626889
_chemical_formula_structural   Ag2In4
_chemical_formula_sum   'Ag2 In4'
_cell_volume   145.22556402
loop_
 _symmetry_equiv_pos_site_id
 _symmetry_equiv_pos_as_xyz
  1  'x, y, z'
loop_
 _atom_type_symbol
  Ag
  In
loop_
 _atom_site_type_symbol
 _atom_site_label
 _atom_site_symmetry_multiplicity
 _atom_site_fract_x
 _atom_site_fract_y
 _atom_site_fract_z
 _atom_site_occupancy
  Ag  Ag0  1  0.75000000  0.75000000  0.00000000  1
  Ag  Ag1  1  0.25000000  0.25000000  0.00000000  1
  In  In0  1  0.34581246  0.15418754  0.50000000  1
  In  In1  1  0.65418754  0.84581246  0.50000000  1
  In  In2  1  0.15418754  0.65418754  0.80837509  1
  In  In3  1  0.84581246  0.34581246  0.19162491  1
