# generated using pymatgen
data_196_Au8Mn4
_symmetry_space_group_name_H-M   'Pnma'
_cell_length_a   5.73841068
_cell_length_b   4.22695942
_cell_length_c   8.47217199
_cell_angle_alpha   90.00000000
_cell_angle_beta   90.00000000
_cell_angle_gamma   90.00000000
_chemical_formula_structural   Au8Mn4
_chemical_formula_sum   'Au8 Mn4'
_cell_volume   205.50125016
loop_
 _symmetry_equiv_pos_site_id
 _symmetry_equiv_pos_as_xyz
  1  'x, y, z'
loop_
 _atom_type_symbol
  Au
  Mn
loop_
 _atom_site_type_symbol
 _atom_site_label
 _atom_site_symmetry_multiplicity
 _atom_site_fract_x
 _atom_site_fract_y
 _atom_site_fract_z
 _atom_site_occupancy
  Au  Au0  1  0.08276521  0.25000000  0.23335135  1
  Au  Au1  1  0.15850673  0.25000000  0.57411244  1
  Au  Au2  1  0.34149327  0.75000000  0.07411244  1
  Au  Au3  1  0.41723479  0.75000000  0.73335135  1
  Au  Au4  1  0.58276521  0.25000000  0.26664865  1
  Au  Au5  1  0.65850673  0.25000000  0.92588756  1
  Au  Au6  1  0.84149327  0.75000000  0.42588756  1
  Au  Au7  1  0.91723479  0.75000000  0.76664865  1
  Mn  Mn0  1  0.15720372  0.25000000  0.90662682  1
  Mn  Mn1  1  0.34279628  0.75000000  0.40662682  1
  Mn  Mn2  1  0.65720372  0.25000000  0.59337318  1
  Mn  Mn3  1  0.84279628  0.75000000  0.09337318  1
