# generated using pymatgen
data_1976_Ag2Na4
_symmetry_space_group_name_H-M   'Pnnm'
_cell_length_a   3.70306822
_cell_length_b   7.35158774
_cell_length_c   7.17566930
_cell_angle_alpha   90.00000000
_cell_angle_beta   90.00000000
_cell_angle_gamma   90.00000000
_chemical_formula_structural   Ag2Na4
_chemical_formula_sum   'Ag2 Na4'
_cell_volume   195.34633754
loop_
 _symmetry_equiv_pos_site_id
 _symmetry_equiv_pos_as_xyz
  1  'x, y, z'
loop_
 _atom_type_symbol
  Ag
  Na
loop_
 _atom_site_type_symbol
 _atom_site_label
 _atom_site_symmetry_multiplicity
 _atom_site_fract_x
 _atom_site_fract_y
 _atom_site_fract_z
 _atom_site_occupancy
  Ag  Ag0  1  0.00000000  0.00000000  0.00000000  1
  Ag  Ag1  1  0.50000000  0.50000000  0.50000000  1
  Na  Na0  1  0.00000000  0.22391832  0.66081107  1
  Na  Na1  1  0.00000000  0.77608168  0.33918893  1
  Na  Na2  1  0.50000000  0.72391832  0.83918893  1
  Na  Na3  1  0.50000000  0.27608168  0.16081107  1
