# generated using pymatgen
data_1977_Fe4W2
_symmetry_space_group_name_H-M   'Cmcm'
_cell_length_a   2.96976409
_cell_length_b   6.43171863
_cell_length_c   4.17710935
_cell_angle_alpha   90.00000000
_cell_angle_beta   90.00000000
_cell_angle_gamma   76.65178325
_chemical_formula_structural   Fe4W2
_chemical_formula_sum   'Fe4 W2'
_cell_volume   77.63024333
loop_
 _symmetry_equiv_pos_site_id
 _symmetry_equiv_pos_as_xyz
  1  'x, y, z'
loop_
 _atom_type_symbol
  Fe
  W
loop_
 _atom_site_type_symbol
 _atom_site_label
 _atom_site_symmetry_multiplicity
 _atom_site_fract_x
 _atom_site_fract_y
 _atom_site_fract_z
 _atom_site_occupancy
  Fe  Fe0  1  0.02343722  0.95312557  0.00000000  1
  Fe  Fe1  1  0.19433931  0.61132138  0.50000000  1
  Fe  Fe2  1  0.36121625  0.27756751  0.00000000  1
  Fe  Fe3  1  0.53211834  0.93576332  0.50000000  1
  W  W0  1  0.68883525  0.62232950  0.00000000  1
  W  W1  1  0.86672031  0.26655939  0.50000000  1
