# generated using pymatgen
data_1982_Fe2V4
_symmetry_space_group_name_H-M   'Cmcm'
_cell_length_a   2.89417018
_cell_length_b   6.32384413
_cell_length_c   4.11611201
_cell_angle_alpha   90.00000000
_cell_angle_beta   90.00000000
_cell_angle_gamma   76.77180275
_chemical_formula_structural   Fe2V4
_chemical_formula_sum   'Fe2 V4'
_cell_volume   73.33535086
loop_
 _symmetry_equiv_pos_site_id
 _symmetry_equiv_pos_as_xyz
  1  'x, y, z'
loop_
 _atom_type_symbol
  Fe
  V
loop_
 _atom_site_type_symbol
 _atom_site_label
 _atom_site_symmetry_multiplicity
 _atom_site_fract_x
 _atom_site_fract_y
 _atom_site_fract_z
 _atom_site_occupancy
  Fe  Fe0  1  0.36212567  0.27574866  0.00000000  1
  Fe  Fe1  1  0.52676322  0.94647356  0.50000000  1
  V  V0  1  0.02533064  0.94933872  0.00000000  1
  V  V1  1  0.19407759  0.61184481  0.50000000  1
  V  V2  1  0.69481129  0.61037741  0.00000000  1
  V  V3  1  0.86355825  0.27288350  0.50000000  1
