# generated using pymatgen
data_1985_In4Br2
_symmetry_space_group_name_H-M   'Cmcm'
_cell_length_a   8.94815575
_cell_length_b   8.94815575
_cell_length_c   5.21414332
_cell_angle_alpha   90.00000000
_cell_angle_beta   90.00000000
_cell_angle_gamma   154.25543439
_chemical_formula_structural   In4Br2
_chemical_formula_sum   'Br2 In4'
_cell_volume   181.34253566
loop_
 _symmetry_equiv_pos_site_id
 _symmetry_equiv_pos_as_xyz
  1  'x, y, z'
loop_
 _atom_type_symbol
  Br
  In
loop_
 _atom_site_type_symbol
 _atom_site_label
 _atom_site_symmetry_multiplicity
 _atom_site_fract_x
 _atom_site_fract_y
 _atom_site_fract_z
 _atom_site_occupancy
  Br  Br0  1  0.64814398  0.35185602  0.00000000  1
  Br  Br1  1  0.46296713  0.53703287  0.50000000  1
  In  In0  1  0.97712753  0.02287247  0.00000000  1
  In  In1  1  0.31066257  0.68933743  0.00000000  1
  In  In2  1  0.80044854  0.19955146  0.50000000  1
  In  In3  1  0.13398359  0.86601641  0.50000000  1
