# generated using pymatgen
data_1987_Ag3K
_symmetry_space_group_name_H-M   'I4/mmm'
_cell_length_a   5.51111518
_cell_length_b   5.51111518
_cell_length_c   5.51111518
_cell_angle_alpha   131.51164002
_cell_angle_beta   131.51164002
_cell_angle_gamma   71.00144067
_chemical_formula_structural   Ag3K
_chemical_formula_sum   'Ag3 K1'
_cell_volume   91.90814074
loop_
 _symmetry_equiv_pos_site_id
 _symmetry_equiv_pos_as_xyz
  1  'x, y, z'
loop_
 _atom_type_symbol
  Ag
  K
loop_
 _atom_site_type_symbol
 _atom_site_label
 _atom_site_symmetry_multiplicity
 _atom_site_fract_x
 _atom_site_fract_y
 _atom_site_fract_z
 _atom_site_occupancy
  Ag  Ag0  1  0.50000008  0.50000008  0.00000000  1
  Ag  Ag1  1  0.75000037  0.25000004  0.50000033  1
  Ag  Ag2  1  0.25000004  0.75000037  0.50000033  1
  K  K0  1  0.00000000  0.00000000  0.00000000  1
