# generated using pymatgen
data_1988_PbGe3
_symmetry_space_group_name_H-M   'Fm -3 m'
_cell_length_a   5.03711289
_cell_length_b   5.03711289
_cell_length_c   5.03711289
_cell_angle_alpha   60.00000000
_cell_angle_beta   60.00000000
_cell_angle_gamma   60.00000000
_chemical_formula_structural   PbGe3
_chemical_formula_sum   'Ge3 Pb1'
_cell_volume   90.37120103
loop_
 _symmetry_equiv_pos_site_id
 _symmetry_equiv_pos_as_xyz
  1  'x, y, z'
loop_
 _atom_type_symbol
  Ge
  Pb
loop_
 _atom_site_type_symbol
 _atom_site_label
 _atom_site_symmetry_multiplicity
 _atom_site_fract_x
 _atom_site_fract_y
 _atom_site_fract_z
 _atom_site_occupancy
  Ge  Ge0  1  0.00000000  0.00000000  0.00000000  1
  Ge  Ge1  1  0.24999947  0.24999947  0.24999947  1
  Ge  Ge2  1  0.50000033  0.50000033  0.50000033  1
  Pb  Pb0  1  0.74999980  0.74999980  0.74999980  1
