# generated using pymatgen
data_1989_Ba8P
_symmetry_space_group_name_H-M   'I4/mmm'
_cell_length_a   10.79494651
_cell_length_b   10.79494651
_cell_length_c   10.79494651
_cell_angle_alpha   92.43186427
_cell_angle_beta   92.43186427
_cell_angle_gamma   156.22524842
_chemical_formula_structural   Ba8P
_chemical_formula_sum   'Ba8 P1'
_cell_volume   496.25462882
loop_
 _symmetry_equiv_pos_site_id
 _symmetry_equiv_pos_as_xyz
  1  'x, y, z'
loop_
 _atom_type_symbol
  Ba
  P
loop_
 _atom_site_type_symbol
 _atom_site_label
 _atom_site_symmetry_multiplicity
 _atom_site_fract_x
 _atom_site_fract_y
 _atom_site_fract_z
 _atom_site_occupancy
  Ba  Ba0  1  0.37394729  0.62605271  0.00000000  1
  Ba  Ba1  1  0.62605271  0.37394729  0.00000000  1
  Ba  Ba2  1  0.00000000  0.33643242  0.33643242  1
  Ba  Ba3  1  0.62605271  0.62605271  0.25210542  1
  Ba  Ba4  1  0.33643242  1.00000000  0.33643242  1
  Ba  Ba5  1  0.37394729  0.37394729  0.74789458  1
  Ba  Ba6  1  0.00000000  0.66356758  0.66356758  1
  Ba  Ba7  1  0.66356758  1.00000000  0.66356758  1
  P  P0  1  0.00000000  0.00000000  0.00000000  1
