# generated using pymatgen
data_199_Al2V
_symmetry_space_group_name_H-M   'Fmmm'
_cell_length_a   6.04542897
_cell_length_b   5.79422424
_cell_length_c   2.21331282
_cell_angle_alpha   85.69673448
_cell_angle_beta   72.89067831
_cell_angle_gamma   21.41258720
_chemical_formula_structural   Al2V
_chemical_formula_sum   'Al2 V1'
_cell_volume   22.22880878
loop_
 _symmetry_equiv_pos_site_id
 _symmetry_equiv_pos_as_xyz
  1  'x, y, z'
loop_
 _atom_type_symbol
  Al
  V
loop_
 _atom_site_type_symbol
 _atom_site_label
 _atom_site_symmetry_multiplicity
 _atom_site_fract_x
 _atom_site_fract_y
 _atom_site_fract_z
 _atom_site_occupancy
  Al  Al0  1  0.83281029  0.83281029  0.16718971  1
  Al  Al1  1  0.16718971  0.16718971  0.83281029  1
  V  V0  1  0.50000000  0.50000000  0.50000000  1
