# generated using pymatgen
data_19_In4Sn2
_symmetry_space_group_name_H-M   'C2/m'
_cell_length_a   6.50642951
_cell_length_b   6.50642951
_cell_length_c   8.02306959
_cell_angle_alpha   74.95805590
_cell_angle_beta   74.95805590
_cell_angle_gamma   30.28773375
_chemical_formula_structural   In4Sn2
_chemical_formula_sum   'In4 Sn2'
_cell_volume   164.99036194
loop_
 _symmetry_equiv_pos_site_id
 _symmetry_equiv_pos_as_xyz
  1  'x, y, z'
loop_
 _atom_type_symbol
  In
  Sn
loop_
 _atom_site_type_symbol
 _atom_site_label
 _atom_site_symmetry_multiplicity
 _atom_site_fract_x
 _atom_site_fract_y
 _atom_site_fract_z
 _atom_site_occupancy
  In  In0  1  0.99998949  0.99998949  0.99972466  1
  In  In1  1  0.33314971  0.33314971  0.33343626  1
  In  In2  1  0.61129474  0.61129474  0.27767485  1
  In  In3  1  0.94445495  0.94445495  0.61138645  1
  Sn  Sn0  1  0.66690105  0.66690105  0.66673324  1
  Sn  Sn1  1  0.27754339  0.27754339  0.94437787  1
