# generated using pymatgen
data_2002_Sr2W2
_symmetry_space_group_name_H-M   'Fd -3 m'
_cell_length_a   5.08143119
_cell_length_b   5.08143119
_cell_length_c   5.08143119
_cell_angle_alpha   119.84203096
_cell_angle_beta   119.84203096
_cell_angle_gamma   90.27382887
_chemical_formula_structural   Sr2W2
_chemical_formula_sum   'Sr2 W2'
_cell_volume   92.99797828
loop_
 _symmetry_equiv_pos_site_id
 _symmetry_equiv_pos_as_xyz
  1  'x, y, z'
loop_
 _atom_type_symbol
  Sr
  W
loop_
 _atom_site_type_symbol
 _atom_site_label
 _atom_site_symmetry_multiplicity
 _atom_site_fract_x
 _atom_site_fract_y
 _atom_site_fract_z
 _atom_site_occupancy
  Sr  Sr0  1  0.00000000  0.00000000  0.00000000  1
  Sr  Sr1  1  0.25000000  0.75000000  0.50000000  1
  W  W0  1  0.50000000  0.50000000  0.00000000  1
  W  W1  1  0.75000000  0.25000000  0.50000000  1
