# generated using pymatgen
data_2005_Fe26Mo2
_symmetry_space_group_name_H-M   'Fm -3 c'
_cell_length_a   7.67712349
_cell_length_b   7.67712349
_cell_length_c   7.67712349
_cell_angle_alpha   60.00000000
_cell_angle_beta   60.00000000
_cell_angle_gamma   60.00000000
_chemical_formula_structural   Fe26Mo2
_chemical_formula_sum   'Fe26 Mo2'
_cell_volume   319.94887075
loop_
 _symmetry_equiv_pos_site_id
 _symmetry_equiv_pos_as_xyz
  1  'x, y, z'
loop_
 _atom_type_symbol
  Fe
  Mo
loop_
 _atom_site_type_symbol
 _atom_site_label
 _atom_site_symmetry_multiplicity
 _atom_site_fract_x
 _atom_site_fract_y
 _atom_site_fract_z
 _atom_site_occupancy
  Fe  Fe0  1  0.29996490  0.70003510  0.05630487  1
  Fe  Fe1  1  0.05630487  0.94369513  0.29996490  1
  Fe  Fe2  1  0.94369513  0.05630487  0.70003510  1
  Fe  Fe3  1  0.70003510  0.29996490  0.94369513  1
  Fe  Fe4  1  0.94369513  0.70003510  0.29996490  1
  Fe  Fe5  1  0.70003510  0.94369513  0.05630487  1
  Fe  Fe6  1  0.29996490  0.05630487  0.94369513  1
  Fe  Fe7  1  0.05630487  0.29996490  0.70003510  1
  Fe  Fe8  1  0.05630487  0.70003510  0.94369513  1
  Fe  Fe9  1  0.29996490  0.94369513  0.70003510  1
  Fe  Fe10  1  0.70003510  0.05630487  0.29996490  1
  Fe  Fe11  1  0.94369513  0.29996490  0.05630487  1
  Fe  Fe12  1  0.20003510  0.55630487  0.44369513  1
  Fe  Fe13  1  0.44369513  0.79996490  0.20003510  1
  Fe  Fe14  1  0.55630487  0.20003510  0.79996490  1
  Fe  Fe15  1  0.79996490  0.44369513  0.55630487  1
  Fe  Fe16  1  0.55630487  0.44369513  0.20003510  1
  Fe  Fe17  1  0.79996490  0.20003510  0.44369513  1
  Fe  Fe18  1  0.20003510  0.79996490  0.55630487  1
  Fe  Fe19  1  0.44369513  0.55630487  0.79996490  1
  Fe  Fe20  1  0.44369513  0.20003510  0.55630487  1
  Fe  Fe21  1  0.20003510  0.44369513  0.79996490  1
  Fe  Fe22  1  0.79996490  0.55630487  0.20003510  1
  Fe  Fe23  1  0.55630487  0.79996490  0.44369513  1
  Fe  Fe24  1  0.00000000  0.00000000  0.00000000  1
  Fe  Fe25  1  0.50000000  0.50000000  0.50000000  1
  Mo  Mo0  1  0.25000000  0.25000000  0.25000000  1
  Mo  Mo1  1  0.75000000  0.75000000  0.75000000  1
