# generated using pymatgen
data_2011_Ba8Bi6
_symmetry_space_group_name_H-M   'I-43d'
_cell_length_a   9.22785055
_cell_length_b   9.22785055
_cell_length_c   9.22785055
_cell_angle_alpha   109.47122063
_cell_angle_beta   109.47122063
_cell_angle_gamma   109.47122063
_chemical_formula_structural   Ba8Bi6
_chemical_formula_sum   'Ba8 Bi6'
_cell_volume   604.89468189
loop_
 _symmetry_equiv_pos_site_id
 _symmetry_equiv_pos_as_xyz
  1  'x, y, z'
loop_
 _atom_type_symbol
  Ba
  Bi
loop_
 _atom_site_type_symbol
 _atom_site_label
 _atom_site_symmetry_multiplicity
 _atom_site_fract_x
 _atom_site_fract_y
 _atom_site_fract_z
 _atom_site_occupancy
  Ba  Ba0  1  0.14607988  0.00000000  0.00000000  1
  Ba  Ba1  1  0.64607973  0.00000000  0.00000000  1
  Ba  Ba2  1  0.49999985  0.49999985  0.14607988  1
  Ba  Ba3  1  0.35391997  0.85391982  0.35391997  1
  Ba  Ba4  1  1.00000000  0.14607988  0.49999985  1
  Ba  Ba5  1  1.00000000  0.64607973  0.49999985  1
  Ba  Ba6  1  0.49999985  0.49999985  0.64607973  1
  Ba  Ba7  1  0.85391982  0.35391997  0.85391982  1
  Bi  Bi0  1  0.87500021  0.74999977  0.12500043  1
  Bi  Bi1  1  0.12500043  0.37500036  0.24999992  1
  Bi  Bi2  1  0.62500028  0.24999992  0.37500036  1
  Bi  Bi3  1  0.74999977  0.87500021  0.62500028  1
  Bi  Bi4  1  0.37499942  0.12499949  0.74999977  1
  Bi  Bi5  1  0.24999992  0.62500028  0.87500021  1
