# generated using pymatgen
data_2014_Cr12W18
_symmetry_space_group_name_H-M   'P4_2/mnm'
_cell_length_a   9.43891269
_cell_length_b   9.43891269
_cell_length_c   5.06979310
_cell_angle_alpha   90.00000000
_cell_angle_beta   90.00000000
_cell_angle_gamma   90.00000000
_chemical_formula_structural   Cr12W18
_chemical_formula_sum   'Cr12 W18'
_cell_volume   451.68344558
loop_
 _symmetry_equiv_pos_site_id
 _symmetry_equiv_pos_as_xyz
  1  'x, y, z'
loop_
 _atom_type_symbol
  Cr
  W
loop_
 _atom_site_type_symbol
 _atom_site_label
 _atom_site_symmetry_multiplicity
 _atom_site_fract_x
 _atom_site_fract_y
 _atom_site_fract_z
 _atom_site_occupancy
  Cr  Cr0  1  0.39655493  0.60344507  0.00000000  1
  Cr  Cr1  1  0.60344507  0.39655493  0.00000000  1
  Cr  Cr2  1  0.89655493  0.89655493  0.50000000  1
  Cr  Cr3  1  0.10344507  0.10344507  0.50000000  1
  Cr  Cr4  1  0.13236756  0.53500319  0.00000000  1
  Cr  Cr5  1  0.86763244  0.46499681  0.00000000  1
  Cr  Cr6  1  0.96499681  0.63236756  0.50000000  1
  Cr  Cr7  1  0.03500319  0.36763244  0.50000000  1
  Cr  Cr8  1  0.36763244  0.03500319  0.50000000  1
  Cr  Cr9  1  0.63236756  0.96499681  0.50000000  1
  Cr  Cr10  1  0.53500319  0.13236756  0.00000000  1
  Cr  Cr11  1  0.46499681  0.86763244  0.00000000  1
  W  W0  1  0.00000000  0.00000000  0.00000000  1
  W  W1  1  0.50000000  0.50000000  0.50000000  1
  W  W2  1  0.06276175  0.26947025  0.00000000  1
  W  W3  1  0.93723825  0.73052975  0.00000000  1
  W  W4  1  0.23052975  0.56276175  0.50000000  1
  W  W5  1  0.76947025  0.43723825  0.50000000  1
  W  W6  1  0.43723825  0.76947025  0.50000000  1
  W  W7  1  0.56276175  0.23052975  0.50000000  1
  W  W8  1  0.26947025  0.06276175  0.00000000  1
  W  W9  1  0.73052975  0.93723825  0.00000000  1
  W  W10  1  0.31503265  0.31503265  0.24824461  1
  W  W11  1  0.68496735  0.68496735  0.24824461  1
  W  W12  1  0.18496735  0.81503265  0.74824461  1
  W  W13  1  0.81503265  0.18496735  0.74824461  1
  W  W14  1  0.18496735  0.81503265  0.25175539  1
  W  W15  1  0.81503265  0.18496735  0.25175539  1
  W  W16  1  0.31503265  0.31503265  0.75175539  1
  W  W17  1  0.68496735  0.68496735  0.75175539  1
