# generated using pymatgen
data_2018_Au2Mn2
_symmetry_space_group_name_H-M   'Pmma'
_cell_length_a   3.02611407
_cell_length_b   4.63707773
_cell_length_c   4.73628538
_cell_angle_alpha   90.00000000
_cell_angle_beta   90.22777916
_cell_angle_gamma   90.00000000
_chemical_formula_structural   Au2Mn2
_chemical_formula_sum   'Au2 Mn2'
_cell_volume   66.46057611
loop_
 _symmetry_equiv_pos_site_id
 _symmetry_equiv_pos_as_xyz
  1  'x, y, z'
loop_
 _atom_type_symbol
  Au
  Mn
loop_
 _atom_site_type_symbol
 _atom_site_label
 _atom_site_symmetry_multiplicity
 _atom_site_fract_x
 _atom_site_fract_y
 _atom_site_fract_z
 _atom_site_occupancy
  Au  Au0  1  0.00289846  0.25000000  0.20202228  1
  Au  Au1  1  0.99710154  0.75000000  0.79797772  1
  Mn  Mn0  1  0.49600713  0.25000000  0.70369973  1
  Mn  Mn1  1  0.50399287  0.75000000  0.29630027  1
