# generated using pymatgen
data_2021_CuI
_symmetry_space_group_name_H-M   'P-6m2'
_cell_length_a   3.92688700
_cell_length_b   3.92682845
_cell_length_c   3.66334700
_cell_angle_alpha   90.00000000
_cell_angle_beta   90.00000000
_cell_angle_gamma   120.00050168
_chemical_formula_structural   CuI
_chemical_formula_sum   'Cu1 I1'
_cell_volume   48.92116907
loop_
 _symmetry_equiv_pos_site_id
 _symmetry_equiv_pos_as_xyz
  1  'x, y, z'
loop_
 _atom_type_symbol
  Cu
  I
loop_
 _atom_site_type_symbol
 _atom_site_label
 _atom_site_symmetry_multiplicity
 _atom_site_fract_x
 _atom_site_fract_y
 _atom_site_fract_z
 _atom_site_occupancy
  Cu  Cu0  1  0.66666560  0.33333278  0.74999999  1
  I  I0  1  0.33333442  0.66666850  0.24999818  1
