# generated using pymatgen
data_2023_Mn4Mo5
_symmetry_space_group_name_H-M   'I4/mmm'
_cell_length_a   3.12500490
_cell_length_b   6.55542000
_cell_length_c   6.55542000
_cell_angle_alpha   93.25684359
_cell_angle_beta   103.78933930
_cell_angle_gamma   76.21066070
_chemical_formula_structural   Mn4Mo5
_chemical_formula_sum   'Mn4 Mo5'
_cell_volume   126.66306569
loop_
 _symmetry_equiv_pos_site_id
 _symmetry_equiv_pos_as_xyz
  1  'x, y, z'
loop_
 _atom_type_symbol
  Mn
  Mo
loop_
 _atom_site_type_symbol
 _atom_site_label
 _atom_site_symmetry_multiplicity
 _atom_site_fract_x
 _atom_site_fract_y
 _atom_site_fract_z
 _atom_site_occupancy
  Mn  Mn0  1  1.00000000  0.34400533  0.34400533  1
  Mn  Mn1  1  0.00000000  0.65599467  0.65599467  1
  Mn  Mn2  1  0.34400533  0.65599467  0.34400533  1
  Mn  Mn3  1  0.65599467  0.34400533  0.65599467  1
  Mo  Mo0  1  0.00000000  0.00000000  0.00000000  1
  Mo  Mo1  1  0.33048219  0.00000000  0.66096439  1
  Mo  Mo2  1  0.33048219  0.33903561  0.00000000  1
  Mo  Mo3  1  0.66951781  0.66096439  0.00000000  1
  Mo  Mo4  1  0.66951781  0.00000000  0.33903561  1
