# generated using pymatgen
data_2024_K2Sn4
_symmetry_space_group_name_H-M   'I4_1/amd'
_cell_length_a   9.20479046
_cell_length_b   9.20479046
_cell_length_c   9.20479046
_cell_angle_alpha   146.85027268
_cell_angle_beta   146.74003153
_cell_angle_gamma   47.66724901
_chemical_formula_structural   K2Sn4
_chemical_formula_sum   'K2 Sn4'
_cell_volume   232.96908789
loop_
 _symmetry_equiv_pos_site_id
 _symmetry_equiv_pos_as_xyz
  1  'x, y, z'
loop_
 _atom_type_symbol
  K
  Sn
loop_
 _atom_site_type_symbol
 _atom_site_label
 _atom_site_symmetry_multiplicity
 _atom_site_fract_x
 _atom_site_fract_y
 _atom_site_fract_z
 _atom_site_occupancy
  K  K0  1  0.12484914  0.37484914  0.75000000  1
  K  K1  1  0.87515086  0.62515086  0.25000000  1
  Sn  Sn0  1  0.71179601  0.96179601  0.75000000  1
  Sn  Sn1  1  0.28820399  0.03820399  0.25000000  1
  Sn  Sn2  1  0.53885432  0.78885432  0.75000000  1
  Sn  Sn3  1  0.46114568  0.21114568  0.25000000  1
