# generated using pymatgen
data_2029_GaPt5
_symmetry_space_group_name_H-M   'Cmmm'
_cell_length_a   6.23430096
_cell_length_b   6.23430096
_cell_length_c   3.95737299
_cell_angle_alpha   90.00000000
_cell_angle_beta   90.00000000
_cell_angle_gamma   142.78568489
_chemical_formula_structural   GaPt5
_chemical_formula_sum   'Ga1 Pt5'
_cell_volume   93.02355548
loop_
 _symmetry_equiv_pos_site_id
 _symmetry_equiv_pos_as_xyz
  1  'x, y, z'
loop_
 _atom_type_symbol
  Ga
  Pt
loop_
 _atom_site_type_symbol
 _atom_site_label
 _atom_site_symmetry_multiplicity
 _atom_site_fract_x
 _atom_site_fract_y
 _atom_site_fract_z
 _atom_site_occupancy
  Ga  Ga0  1  0.97240356  0.02759644  0.00000000  1
  Pt  Pt0  1  0.80604837  0.19395163  0.50000000  1
  Pt  Pt1  1  0.63304643  0.36695357  0.00000000  1
  Pt  Pt2  1  0.47223211  0.52776789  0.50000000  1
  Pt  Pt3  1  0.31162412  0.68837588  0.00000000  1
  Pt  Pt4  1  0.13797876  0.86202124  0.50000000  1
