# generated using pymatgen
data_2032_SrAs2
_symmetry_space_group_name_H-M   'Fmmm'
_cell_length_a   7.02837859
_cell_length_b   6.73945660
_cell_length_c   2.50876645
_cell_angle_alpha   86.07263732
_cell_angle_beta   73.06588083
_cell_angle_gamma   20.86148185
_chemical_formula_structural   SrAs2
_chemical_formula_sum   'As2 Sr1'
_cell_volume   32.45004791
loop_
 _symmetry_equiv_pos_site_id
 _symmetry_equiv_pos_as_xyz
  1  'x, y, z'
loop_
 _atom_type_symbol
  As
  Sr
loop_
 _atom_site_type_symbol
 _atom_site_label
 _atom_site_symmetry_multiplicity
 _atom_site_fract_x
 _atom_site_fract_y
 _atom_site_fract_z
 _atom_site_occupancy
  As  As0  1  0.83088478  0.83088478  0.16911522  1
  As  As1  1  0.16911522  0.16911522  0.83088478  1
  Sr  Sr0  1  0.50000000  0.50000000  0.50000000  1
