# generated using pymatgen
data_2033_Au2As
_symmetry_space_group_name_H-M   'Fmmm'
_cell_length_a   6.68793080
_cell_length_b   6.42025703
_cell_length_c   2.45085759
_cell_angle_alpha   85.44729971
_cell_angle_beta   73.12643863
_cell_angle_gamma   21.42626167
_chemical_formula_structural   Au2As
_chemical_formula_sum   'As1 Au2'
_cell_volume   30.82334932
loop_
 _symmetry_equiv_pos_site_id
 _symmetry_equiv_pos_as_xyz
  1  'x, y, z'
loop_
 _atom_type_symbol
  As
  Au
loop_
 _atom_site_type_symbol
 _atom_site_label
 _atom_site_symmetry_multiplicity
 _atom_site_fract_x
 _atom_site_fract_y
 _atom_site_fract_z
 _atom_site_occupancy
  As  As0  1  0.00000000  0.00000000  0.00000000  1
  Au  Au0  1  0.33711011  0.33711011  0.66288989  1
  Au  Au1  1  0.66288989  0.66288989  0.33711011  1
