# generated using pymatgen
data_2036_AgAl2
_symmetry_space_group_name_H-M   'I4/mmm'
_cell_length_a   4.72446774
_cell_length_b   4.72446774
_cell_length_c   5.16204509
_cell_angle_alpha   90.00000000
_cell_angle_beta   90.00000000
_cell_angle_gamma   113.85427828
_chemical_formula_structural   AgAl2
_chemical_formula_sum   'Ag2 Al4'
_cell_volume   105.37748480
loop_
 _symmetry_equiv_pos_site_id
 _symmetry_equiv_pos_as_xyz
  1  'x, y, z'
loop_
 _atom_type_symbol
  Ag
  Al
loop_
 _atom_site_type_symbol
 _atom_site_label
 _atom_site_symmetry_multiplicity
 _atom_site_fract_x
 _atom_site_fract_y
 _atom_site_fract_z
 _atom_site_occupancy
  Ag  Ag0  1  0.25355701  0.25355701  0.25000000  1
  Ag  Ag1  1  0.74644299  0.74644299  0.75000000  1
  Al  Al0  1  0.58746431  0.92048793  0.25000000  1
  Al  Al1  1  0.41253569  0.07951207  0.75000000  1
  Al  Al2  1  0.92048793  0.58746431  0.25000000  1
  Al  Al3  1  0.07951207  0.41253569  0.75000000  1
