# generated using pymatgen
data_2037_Al4Pd2
_symmetry_space_group_name_H-M   'P4_2/mnm'
_cell_length_a   6.31896950
_cell_length_b   6.31896950
_cell_length_c   2.99209587
_cell_angle_alpha   90.00000000
_cell_angle_beta   90.00000000
_cell_angle_gamma   90.00000000
_chemical_formula_structural   Al4Pd2
_chemical_formula_sum   'Al4 Pd2'
_cell_volume   119.47251965
loop_
 _symmetry_equiv_pos_site_id
 _symmetry_equiv_pos_as_xyz
  1  'x, y, z'
loop_
 _atom_type_symbol
  Al
  Pd
loop_
 _atom_site_type_symbol
 _atom_site_label
 _atom_site_symmetry_multiplicity
 _atom_site_fract_x
 _atom_site_fract_y
 _atom_site_fract_z
 _atom_site_occupancy
  Al  Al0  1  0.77534901  0.77534901  0.00000000  1
  Al  Al1  1  0.22465099  0.22465099  0.00000000  1
  Al  Al2  1  0.72465099  0.27534901  0.50000000  1
  Al  Al3  1  0.27534901  0.72465099  0.50000000  1
  Pd  Pd0  1  0.50000000  0.50000000  0.00000000  1
  Pd  Pd1  1  0.00000000  0.00000000  0.50000000  1
