# generated using pymatgen
data_2042_K5As
_symmetry_space_group_name_H-M   'P4/mmm'
_cell_length_a   4.43916482
_cell_length_b   4.43916482
_cell_length_c   15.99489990
_cell_angle_alpha   90.00000000
_cell_angle_beta   90.00000000
_cell_angle_gamma   90.00000000
_chemical_formula_structural   K5As
_chemical_formula_sum   'As1 K5'
_cell_volume   315.19844528
loop_
 _symmetry_equiv_pos_site_id
 _symmetry_equiv_pos_as_xyz
  1  'x, y, z'
loop_
 _atom_type_symbol
  As
  K
loop_
 _atom_site_type_symbol
 _atom_site_label
 _atom_site_symmetry_multiplicity
 _atom_site_fract_x
 _atom_site_fract_y
 _atom_site_fract_z
 _atom_site_occupancy
  As  As0  1  0.50000000  0.50000000  0.00000000  1
  K  K0  1  0.00000000  0.00000000  0.90170483  1
  K  K1  1  0.00000000  0.00000000  0.09829517  1
  K  K2  1  0.50000000  0.50000000  0.71940187  1
  K  K3  1  0.50000000  0.50000000  0.28059813  1
  K  K4  1  0.00000000  0.00000000  0.50000000  1
