# generated using pymatgen
data_2045_Ba8Cu4
_symmetry_space_group_name_H-M   'Pnma'
_cell_length_a   5.26304611
_cell_length_b   8.71740813
_cell_length_c   10.48970098
_cell_angle_alpha   90.00000000
_cell_angle_beta   90.00000000
_cell_angle_gamma   90.00000000
_chemical_formula_structural   Ba8Cu4
_chemical_formula_sum   'Ba8 Cu4'
_cell_volume   481.26874967
loop_
 _symmetry_equiv_pos_site_id
 _symmetry_equiv_pos_as_xyz
  1  'x, y, z'
loop_
 _atom_type_symbol
  Ba
  Cu
loop_
 _atom_site_type_symbol
 _atom_site_label
 _atom_site_symmetry_multiplicity
 _atom_site_fract_x
 _atom_site_fract_y
 _atom_site_fract_z
 _atom_site_occupancy
  Ba  Ba0  1  0.25000000  0.01482299  0.83694293  1
  Ba  Ba1  1  0.75000000  0.48517701  0.33694293  1
  Ba  Ba2  1  0.25000000  0.51482299  0.66305707  1
  Ba  Ba3  1  0.75000000  0.98517701  0.16305707  1
  Ba  Ba4  1  0.25000000  0.14200725  0.42335122  1
  Ba  Ba5  1  0.75000000  0.35799275  0.92335122  1
  Ba  Ba6  1  0.25000000  0.64200725  0.07664878  1
  Ba  Ba7  1  0.75000000  0.85799275  0.57664878  1
  Cu  Cu0  1  0.25000000  0.74853308  0.39101780  1
  Cu  Cu1  1  0.75000000  0.75146692  0.89101780  1
  Cu  Cu2  1  0.25000000  0.24853308  0.10898220  1
  Cu  Cu3  1  0.75000000  0.25146692  0.60898220  1
