# generated using pymatgen
data_204_Ni3Sb
_symmetry_space_group_name_H-M   'I4/mmm'
_cell_length_a   4.52518676
_cell_length_b   4.52518676
_cell_length_c   4.52518676
_cell_angle_alpha   131.10973728
_cell_angle_beta   130.89886624
_cell_angle_gamma   71.80637854
_chemical_formula_structural   Ni3Sb
_chemical_formula_sum   'Ni3 Sb1'
_cell_volume   51.62256561
loop_
 _symmetry_equiv_pos_site_id
 _symmetry_equiv_pos_as_xyz
  1  'x, y, z'
loop_
 _atom_type_symbol
  Ni
  Sb
loop_
 _atom_site_type_symbol
 _atom_site_label
 _atom_site_symmetry_multiplicity
 _atom_site_fract_x
 _atom_site_fract_y
 _atom_site_fract_z
 _atom_site_occupancy
  Ni  Ni0  1  0.25029647  0.25029647  0.00000000  1
  Ni  Ni1  1  0.74970353  0.74970353  0.00000000  1
  Ni  Ni2  1  0.00000000  0.50000000  0.50000000  1
  Sb  Sb0  1  0.50000000  0.00000000  0.50000000  1
