# generated using pymatgen
data_2050_Mo2Nb6
_symmetry_space_group_name_H-M   'Pm -3 n'
_cell_length_a   5.21943226
_cell_length_b   5.21943226
_cell_length_c   5.21943226
_cell_angle_alpha   90.00000000
_cell_angle_beta   90.00000000
_cell_angle_gamma   90.00000000
_chemical_formula_structural   Mo2Nb6
_chemical_formula_sum   'Mo2 Nb6'
_cell_volume   142.19024303
loop_
 _symmetry_equiv_pos_site_id
 _symmetry_equiv_pos_as_xyz
  1  'x, y, z'
loop_
 _atom_type_symbol
  Mo
  Nb
loop_
 _atom_site_type_symbol
 _atom_site_label
 _atom_site_symmetry_multiplicity
 _atom_site_fract_x
 _atom_site_fract_y
 _atom_site_fract_z
 _atom_site_occupancy
  Mo  Mo0  1  0.00000000  0.00000000  0.00000000  1
  Mo  Mo1  1  0.50000000  0.50000000  0.50000000  1
  Nb  Nb0  1  0.00000000  0.25000000  0.50000000  1
  Nb  Nb1  1  0.00000000  0.75000000  0.50000000  1
  Nb  Nb2  1  0.25000000  0.50000000  0.00000000  1
  Nb  Nb3  1  0.50000000  0.00000000  0.25000000  1
  Nb  Nb4  1  0.50000000  0.00000000  0.75000000  1
  Nb  Nb5  1  0.75000000  0.50000000  0.00000000  1
