# generated using pymatgen
data_2055_Fe2As4
_symmetry_space_group_name_H-M   'Pnnm'
_cell_length_a   2.89295545
_cell_length_b   5.30996255
_cell_length_c   5.99543624
_cell_angle_alpha   90.00000000
_cell_angle_beta   90.00000000
_cell_angle_gamma   90.00000000
_chemical_formula_structural   Fe2As4
_chemical_formula_sum   'As4 Fe2'
_cell_volume   92.09880446
loop_
 _symmetry_equiv_pos_site_id
 _symmetry_equiv_pos_as_xyz
  1  'x, y, z'
loop_
 _atom_type_symbol
  As
  Fe
loop_
 _atom_site_type_symbol
 _atom_site_label
 _atom_site_symmetry_multiplicity
 _atom_site_fract_x
 _atom_site_fract_y
 _atom_site_fract_z
 _atom_site_occupancy
  As  As0  1  0.00000000  0.17876165  0.63878495  1
  As  As1  1  0.00000000  0.82123835  0.36121505  1
  As  As2  1  0.50000000  0.32123835  0.13878495  1
  As  As3  1  0.50000000  0.67876165  0.86121505  1
  Fe  Fe0  1  0.00000000  0.00000000  0.00000000  1
  Fe  Fe1  1  0.50000000  0.50000000  0.50000000  1
