# generated using pymatgen
data_2056_Pd4Rh5
_symmetry_space_group_name_H-M   'I4/mmm'
_cell_length_a   3.89417237
_cell_length_b   6.15443880
_cell_length_c   6.15443880
_cell_angle_alpha   84.25561041
_cell_angle_beta   108.44360195
_cell_angle_gamma   108.44360195
_chemical_formula_structural   Pd4Rh5
_chemical_formula_sum   'Pd4 Rh5'
_cell_volume   132.73665148
loop_
 _symmetry_equiv_pos_site_id
 _symmetry_equiv_pos_as_xyz
  1  'x, y, z'
loop_
 _atom_type_symbol
  Pd
  Rh
loop_
 _atom_site_type_symbol
 _atom_site_label
 _atom_site_symmetry_multiplicity
 _atom_site_fract_x
 _atom_site_fract_y
 _atom_site_fract_z
 _atom_site_occupancy
  Pd  Pd0  1  0.32945090  0.32945090  0.32945090  1
  Pd  Pd1  1  0.67054910  0.67054910  0.67054910  1
  Pd  Pd2  1  0.00000000  0.67054910  0.32945090  1
  Pd  Pd3  1  1.00000000  0.32945090  0.67054910  1
  Rh  Rh0  1  0.00000000  0.00000000  0.00000000  1
  Rh  Rh1  1  0.33663787  1.00000000  0.67327575  1
  Rh  Rh2  1  0.66336213  0.32672425  0.00000000  1
  Rh  Rh3  1  0.33663787  0.67327575  0.00000000  1
  Rh  Rh4  1  0.66336213  1.00000000  0.32672425  1
