# generated using pymatgen
data_2059_KNi3
_symmetry_space_group_name_H-M   'Immm'
_cell_length_a   5.72163187
_cell_length_b   5.72163187
_cell_length_c   5.72163187
_cell_angle_alpha   153.86501386
_cell_angle_beta   128.16488711
_cell_angle_gamma   58.95671761
_chemical_formula_structural   KNi3
_chemical_formula_sum   'K1 Ni3'
_cell_volume   64.45634301
loop_
 _symmetry_equiv_pos_site_id
 _symmetry_equiv_pos_as_xyz
  1  'x, y, z'
loop_
 _atom_type_symbol
  K
  Ni
loop_
 _atom_site_type_symbol
 _atom_site_label
 _atom_site_symmetry_multiplicity
 _atom_site_fract_x
 _atom_site_fract_y
 _atom_site_fract_z
 _atom_site_occupancy
  K  K0  1  0.00000000  0.00000000  0.00000000  1
  Ni  Ni0  1  0.70768289  0.20768289  0.50000000  1
  Ni  Ni1  1  0.50000000  0.50000000  0.00000000  1
  Ni  Ni2  1  0.29231711  0.79231711  0.50000000  1
