# generated using pymatgen
data_2062_WP3
_symmetry_space_group_name_H-M   'Fm -3 m'
_cell_length_a   4.29340442
_cell_length_b   4.29340442
_cell_length_c   4.29340442
_cell_angle_alpha   120.30948345
_cell_angle_beta   120.30948345
_cell_angle_gamma   89.46478960
_chemical_formula_structural   WP3
_chemical_formula_sum   'P3 W1'
_cell_volume   55.69722196
loop_
 _symmetry_equiv_pos_site_id
 _symmetry_equiv_pos_as_xyz
  1  'x, y, z'
loop_
 _atom_type_symbol
  P
  W
loop_
 _atom_site_type_symbol
 _atom_site_label
 _atom_site_symmetry_multiplicity
 _atom_site_fract_x
 _atom_site_fract_y
 _atom_site_fract_z
 _atom_site_occupancy
  P  P0  1  0.25000000  0.75000000  0.50000000  1
  P  P1  1  0.50000000  0.50000000  0.00000000  1
  P  P2  1  0.75000000  0.25000000  0.50000000  1
  W  W0  1  0.00000000  0.00000000  0.00000000  1
