# generated using pymatgen
data_2065_KNa2
_symmetry_space_group_name_H-M   'I4/mmm'
_cell_length_a   7.34424668
_cell_length_b   7.34424668
_cell_length_c   7.34424668
_cell_angle_alpha   143.81593499
_cell_angle_beta   143.81593499
_cell_angle_gamma   52.10262280
_chemical_formula_structural   KNa2
_chemical_formula_sum   'K1 Na2'
_cell_volume   137.28371279
loop_
 _symmetry_equiv_pos_site_id
 _symmetry_equiv_pos_as_xyz
  1  'x, y, z'
loop_
 _atom_type_symbol
  K
  Na
loop_
 _atom_site_type_symbol
 _atom_site_label
 _atom_site_symmetry_multiplicity
 _atom_site_fract_x
 _atom_site_fract_y
 _atom_site_fract_z
 _atom_site_occupancy
  K  K0  1  0.00000000  0.00000000  0.00000000  1
  Na  Na0  1  0.68185729  0.68185729  0.00000000  1
  Na  Na1  1  0.31814271  0.31814271  0.00000000  1
