# generated using pymatgen
data_2068_Ba2Ir
_symmetry_space_group_name_H-M   'Fm -3 m'
_cell_length_a   7.57506168
_cell_length_b   7.57506168
_cell_length_c   7.57506168
_cell_angle_alpha   90.00000000
_cell_angle_beta   90.00000000
_cell_angle_gamma   90.00000000
_chemical_formula_structural   Ba2Ir
_chemical_formula_sum   'Ba8 Ir4'
_cell_volume   434.66885217
loop_
 _symmetry_equiv_pos_site_id
 _symmetry_equiv_pos_as_xyz
  1  'x, y, z'
loop_
 _atom_type_symbol
  Ba
  Ir
loop_
 _atom_site_type_symbol
 _atom_site_label
 _atom_site_symmetry_multiplicity
 _atom_site_fract_x
 _atom_site_fract_y
 _atom_site_fract_z
 _atom_site_occupancy
  Ba  Ba0  1  0.75147592  0.75147592  0.24852408  1
  Ba  Ba1  1  0.24852408  0.24852408  0.75147592  1
  Ba  Ba2  1  0.25147592  0.74852408  0.75147592  1
  Ba  Ba3  1  0.74852408  0.25147592  0.24852408  1
  Ba  Ba4  1  0.24852408  0.25147592  0.25147592  1
  Ba  Ba5  1  0.75147592  0.74852408  0.74852408  1
  Ba  Ba6  1  0.74852408  0.24852408  0.74852408  1
  Ba  Ba7  1  0.25147592  0.75147592  0.25147592  1
  Ir  Ir0  1  0.00000000  0.00000000  0.00000000  1
  Ir  Ir1  1  0.50000000  0.50000000  0.00000000  1
  Ir  Ir2  1  0.50000000  0.00000000  0.50000000  1
  Ir  Ir3  1  0.00000000  0.50000000  0.50000000  1
