# generated using pymatgen
data_2069_Pt2As2
_symmetry_space_group_name_H-M   'P4/nmm'
_cell_length_a   3.17921465
_cell_length_b   3.17921465
_cell_length_c   7.64063399
_cell_angle_alpha   90.00000000
_cell_angle_beta   90.00000000
_cell_angle_gamma   90.00000000
_chemical_formula_structural   Pt2As2
_chemical_formula_sum   'As2 Pt2'
_cell_volume   77.22698824
loop_
 _symmetry_equiv_pos_site_id
 _symmetry_equiv_pos_as_xyz
  1  'x, y, z'
loop_
 _atom_type_symbol
  As
  Pt
loop_
 _atom_site_type_symbol
 _atom_site_label
 _atom_site_symmetry_multiplicity
 _atom_site_fract_x
 _atom_site_fract_y
 _atom_site_fract_z
 _atom_site_occupancy
  As  As0  1  0.00000000  0.00000000  0.91968564  1
  As  As1  1  0.50000000  0.50000000  0.33031436  1
  Pt  Pt0  1  0.00000000  0.00000000  0.49335299  1
  Pt  Pt1  1  0.50000000  0.50000000  0.75664701  1
