# generated using pymatgen
data_2070_In5Sn
_symmetry_space_group_name_H-M   'P4/mmm'
_cell_length_a   3.35902867
_cell_length_b   3.35902867
_cell_length_c   14.48194171
_cell_angle_alpha   90.00000000
_cell_angle_beta   90.00000000
_cell_angle_gamma   90.00000000
_chemical_formula_structural   In5Sn
_chemical_formula_sum   'In5 Sn1'
_cell_volume   163.40081427
loop_
 _symmetry_equiv_pos_site_id
 _symmetry_equiv_pos_as_xyz
  1  'x, y, z'
loop_
 _atom_type_symbol
  In
  Sn
loop_
 _atom_site_type_symbol
 _atom_site_label
 _atom_site_symmetry_multiplicity
 _atom_site_fract_x
 _atom_site_fract_y
 _atom_site_fract_z
 _atom_site_occupancy
  In  In0  1  0.00000000  0.00000000  0.83147903  1
  In  In1  1  0.00000000  0.00000000  0.16852097  1
  In  In2  1  0.50000000  0.50000000  0.66409147  1
  In  In3  1  0.50000000  0.50000000  0.33590853  1
  In  In4  1  0.00000000  0.00000000  0.50000000  1
  Sn  Sn0  1  0.50000000  0.50000000  0.00000000  1
