# generated using pymatgen
data_2079_Fe2Ga4
_symmetry_space_group_name_H-M   'I4_1/amd'
_cell_length_a   11.19318596
_cell_length_b   11.19318596
_cell_length_c   11.19318596
_cell_angle_alpha   165.70421816
_cell_angle_beta   165.70421816
_cell_angle_gamma   20.27043578
_chemical_formula_structural   Fe2Ga4
_chemical_formula_sum   'Fe2 Ga4'
_cell_volume   85.49623101
loop_
 _symmetry_equiv_pos_site_id
 _symmetry_equiv_pos_as_xyz
  1  'x, y, z'
loop_
 _atom_type_symbol
  Fe
  Ga
loop_
 _atom_site_type_symbol
 _atom_site_label
 _atom_site_symmetry_multiplicity
 _atom_site_fract_x
 _atom_site_fract_y
 _atom_site_fract_z
 _atom_site_occupancy
  Fe  Fe0  1  0.00000000  0.00000000  0.00000000  1
  Fe  Fe1  1  0.25000000  0.75000000  0.50000000  1
  Ga  Ga0  1  0.56953722  0.56953722  0.00000000  1
  Ga  Ga1  1  0.68046278  0.18046278  0.50000000  1
  Ga  Ga2  1  0.43046278  0.43046278  0.00000000  1
  Ga  Ga3  1  0.81953722  0.31953722  0.50000000  1
