# generated using pymatgen
data_2084_Ce4Sb8
_symmetry_space_group_name_H-M   'Cmce'
_cell_length_a   4.44811222
_cell_length_b   4.44811222
_cell_length_c   18.68179800
_cell_angle_alpha   90.00000000
_cell_angle_beta   90.00000000
_cell_angle_gamma   88.75439458
_chemical_formula_structural   Ce4Sb8
_chemical_formula_sum   'Ce4 Sb8'
_cell_volume   369.54514924
loop_
 _symmetry_equiv_pos_site_id
 _symmetry_equiv_pos_as_xyz
  1  'x, y, z'
loop_
 _atom_type_symbol
  Ce
  Sb
loop_
 _atom_site_type_symbol
 _atom_site_label
 _atom_site_symmetry_multiplicity
 _atom_site_fract_x
 _atom_site_fract_y
 _atom_site_fract_z
 _atom_site_occupancy
  Ce  Ce0  1  0.63676308  0.36323913  0.11064085  1
  Ce  Ce1  1  0.13676241  0.86323980  0.38935921  1
  Ce  Ce2  1  0.86323980  0.13676241  0.61064037  1
  Ce  Ce3  1  0.36323913  0.63676308  0.88935926  1
  Sb  Sb0  1  0.13231838  0.86768383  0.06271399  1
  Sb  Sb1  1  0.12384642  0.37615154  0.25000003  1
  Sb  Sb2  1  0.62384752  0.87615265  0.25000003  1
  Sb  Sb3  1  0.63231745  0.36768476  0.43728553  1
  Sb  Sb4  1  0.36768476  0.63231745  0.56271404  1
  Sb  Sb5  1  0.37615154  0.12384642  0.75000008  1
  Sb  Sb6  1  0.87615265  0.62384752  0.75000008  1
  Sb  Sb7  1  0.86768383  0.13231838  0.93728559  1
