# generated using pymatgen
data_2087_IrNa3
_symmetry_space_group_name_H-M   'Immm'
_cell_length_a   6.64848286
_cell_length_b   6.64848286
_cell_length_c   6.64848286
_cell_angle_alpha   156.00762453
_cell_angle_beta   130.55895807
_cell_angle_gamma   55.67893376
_chemical_formula_structural   IrNa3
_chemical_formula_sum   'Ir1 Na3'
_cell_volume   90.34965625
loop_
 _symmetry_equiv_pos_site_id
 _symmetry_equiv_pos_as_xyz
  1  'x, y, z'
loop_
 _atom_type_symbol
  Ir
  Na
loop_
 _atom_site_type_symbol
 _atom_site_label
 _atom_site_symmetry_multiplicity
 _atom_site_fract_x
 _atom_site_fract_y
 _atom_site_fract_z
 _atom_site_occupancy
  Ir  Ir0  1  0.50000000  0.00000000  0.50000000  1
  Na  Na0  1  0.28507820  0.28507820  0.00000000  1
  Na  Na1  1  0.71492180  0.71492180  1.00000000  1
  Na  Na2  1  0.00000000  0.50000000  0.50000000  1
