# generated using pymatgen
data_2088_Nb4Pb2
_symmetry_space_group_name_H-M   'Cmcm'
_cell_length_a   7.23212101
_cell_length_b   7.23212101
_cell_length_c   4.76323300
_cell_angle_alpha   90.00000000
_cell_angle_beta   90.00000000
_cell_angle_gamma   151.08160810
_chemical_formula_structural   Nb4Pb2
_chemical_formula_sum   'Nb4 Pb2'
_cell_volume   120.47213334
loop_
 _symmetry_equiv_pos_site_id
 _symmetry_equiv_pos_as_xyz
  1  'x, y, z'
loop_
 _atom_type_symbol
  Nb
  Pb
loop_
 _atom_site_type_symbol
 _atom_site_label
 _atom_site_symmetry_multiplicity
 _atom_site_fract_x
 _atom_site_fract_y
 _atom_site_fract_z
 _atom_site_occupancy
  Nb  Nb0  1  0.98707245  0.01292755  0.00000000  1
  Nb  Nb1  1  0.64785395  0.35214605  0.00000000  1
  Nb  Nb2  1  0.45737199  0.54262801  0.50000000  1
  Nb  Nb3  1  0.79659050  0.20340950  0.50000000  1
  Pb  Pb0  1  0.31928351  0.68071649  0.00000000  1
  Pb  Pb1  1  0.12516094  0.87483906  0.50000000  1
