# generated using pymatgen
data_2090_Cu5Pt7
_symmetry_space_group_name_H-M   'P1'
_cell_length_a   4.73670952
_cell_length_b   8.13403912
_cell_length_c   4.70341300
_cell_angle_alpha   84.46966184
_cell_angle_beta   99.73157736
_cell_angle_gamma   106.69106372
_chemical_formula_structural   Cu5Pt7
_chemical_formula_sum   'Cu5 Pt7'
_cell_volume   170.86331380
loop_
 _symmetry_equiv_pos_site_id
 _symmetry_equiv_pos_as_xyz
  1  'x, y, z'
loop_
 _atom_type_symbol
  Cu
  Pt
loop_
 _atom_site_type_symbol
 _atom_site_label
 _atom_site_symmetry_multiplicity
 _atom_site_fract_x
 _atom_site_fract_y
 _atom_site_fract_z
 _atom_site_occupancy
  Cu  Cu0  1  0.99621196  0.00422250  0.99958215  1
  Cu  Cu1  1  0.59228573  0.09025816  0.25223884  1
  Cu  Cu2  1  0.16089490  0.16737970  0.49760936  1
  Cu  Cu3  1  0.75486641  0.24823303  0.75065922  1
  Cu  Cu4  1  0.91315517  0.40700504  0.25027977  1
  Pt  Pt0  1  0.32604887  0.31646734  0.00217695  1
  Pt  Pt1  1  0.49659360  0.48610472  0.49951199  1
  Pt  Pt2  1  0.07847997  0.57593548  0.74982206  1
  Pt  Pt3  1  0.66643470  0.66299736  0.00074151  1
  Pt  Pt4  1  0.25212050  0.75890144  0.24864191  1
  Pt  Pt5  1  0.83928864  0.84737078  0.49666391  1
  Pt  Pt6  1  0.42361955  0.93512445  0.75207235  1
