# generated using pymatgen
data_2095_GeP5
_symmetry_space_group_name_H-M   'Amm2'
_cell_length_a   8.64140914
_cell_length_b   8.64140914
_cell_length_c   3.32943673
_cell_angle_alpha   90.00000000
_cell_angle_beta   90.00000000
_cell_angle_gamma   153.02590085
_chemical_formula_structural   GeP5
_chemical_formula_sum   'Ge1 P5'
_cell_volume   112.77196352
loop_
 _symmetry_equiv_pos_site_id
 _symmetry_equiv_pos_as_xyz
  1  'x, y, z'
loop_
 _atom_type_symbol
  Ge
  P
loop_
 _atom_site_type_symbol
 _atom_site_label
 _atom_site_symmetry_multiplicity
 _atom_site_fract_x
 _atom_site_fract_y
 _atom_site_fract_z
 _atom_site_occupancy
  Ge  Ge0  1  0.96134648  0.03865352  0.00000000  1
  P  P0  1  0.68544384  0.31455616  0.50000000  1
  P  P1  1  0.59299536  0.40700464  0.00000000  1
  P  P2  1  0.48734292  0.51265708  0.50000000  1
  P  P3  1  0.34748937  0.65251063  0.00000000  1
  P  P4  1  0.25871536  0.74128464  0.50000000  1
