# generated using pymatgen
data_209_CuI
_symmetry_space_group_name_H-M   'P-6m2'
_cell_length_a   3.92688688
_cell_length_b   3.92682837
_cell_length_c   3.66334670
_cell_angle_alpha   90.00000000
_cell_angle_beta   90.00000000
_cell_angle_gamma   120.00051019
_chemical_formula_structural   CuI
_chemical_formula_sum   'Cu1 I1'
_cell_volume   48.92115846
loop_
 _symmetry_equiv_pos_site_id
 _symmetry_equiv_pos_as_xyz
  1  'x, y, z'
loop_
 _atom_type_symbol
  Cu
  I
loop_
 _atom_site_type_symbol
 _atom_site_label
 _atom_site_symmetry_multiplicity
 _atom_site_fract_x
 _atom_site_fract_y
 _atom_site_fract_z
 _atom_site_occupancy
  Cu  Cu0  1  0.66666554  0.33333151  0.75000111  1
  I  I0  1  0.33333475  0.66666932  0.24999947  1
