# generated using pymatgen
data_2100_Pd3Sb
_symmetry_space_group_name_H-M   'Immm'
_cell_length_a   5.07300439
_cell_length_b   5.07300439
_cell_length_c   5.07300439
_cell_angle_alpha   137.32835993
_cell_angle_beta   129.46598877
_cell_angle_gamma   68.23070260
_chemical_formula_structural   Pd3Sb
_chemical_formula_sum   'Pd3 Sb1'
_cell_volume   67.14349625
loop_
 _symmetry_equiv_pos_site_id
 _symmetry_equiv_pos_as_xyz
  1  'x, y, z'
loop_
 _atom_type_symbol
  Pd
  Sb
loop_
 _atom_site_type_symbol
 _atom_site_label
 _atom_site_symmetry_multiplicity
 _atom_site_fract_x
 _atom_site_fract_y
 _atom_site_fract_z
 _atom_site_occupancy
  Pd  Pd0  1  0.09986849  0.01715262  0.08271587  1
  Pd  Pd1  1  0.56556325  0.48284738  0.08271587  1
  Pd  Pd2  1  0.83048290  0.25000000  0.58048290  1
  Sb  Sb0  1  0.33741870  0.75000000  0.58741870  1
