# generated using pymatgen
data_2101_Mo4Nb4
_symmetry_space_group_name_H-M   'P2_13'
_cell_length_a   5.18080319
_cell_length_b   5.18080319
_cell_length_c   5.18080319
_cell_angle_alpha   90.00000000
_cell_angle_beta   90.00000000
_cell_angle_gamma   90.00000000
_chemical_formula_structural   Mo4Nb4
_chemical_formula_sum   'Mo4 Nb4'
_cell_volume   139.05649657
loop_
 _symmetry_equiv_pos_site_id
 _symmetry_equiv_pos_as_xyz
  1  'x, y, z'
loop_
 _atom_type_symbol
  Mo
  Nb
loop_
 _atom_site_type_symbol
 _atom_site_label
 _atom_site_symmetry_multiplicity
 _atom_site_fract_x
 _atom_site_fract_y
 _atom_site_fract_z
 _atom_site_occupancy
  Mo  Mo0  1  0.41023481  0.41023481  0.41023481  1
  Mo  Mo1  1  0.08976519  0.58976519  0.91023481  1
  Mo  Mo2  1  0.58976519  0.91023481  0.08976519  1
  Mo  Mo3  1  0.91023481  0.08976519  0.58976519  1
  Nb  Nb0  1  0.09062069  0.09062069  0.09062069  1
  Nb  Nb1  1  0.40937931  0.90937931  0.59062069  1
  Nb  Nb2  1  0.90937931  0.59062069  0.40937931  1
  Nb  Nb3  1  0.59062069  0.40937931  0.90937931  1
