# generated using pymatgen
data_2105_Ag8Ta4
_symmetry_space_group_name_H-M   'Pa -3'
_cell_length_a   6.43567398
_cell_length_b   6.43567398
_cell_length_c   6.43567398
_cell_angle_alpha   90.00000000
_cell_angle_beta   90.00000000
_cell_angle_gamma   90.00000000
_chemical_formula_structural   Ag8Ta4
_chemical_formula_sum   'Ag8 Ta4'
_cell_volume   266.55209861
loop_
 _symmetry_equiv_pos_site_id
 _symmetry_equiv_pos_as_xyz
  1  'x, y, z'
loop_
 _atom_type_symbol
  Ag
  Ta
loop_
 _atom_site_type_symbol
 _atom_site_label
 _atom_site_symmetry_multiplicity
 _atom_site_fract_x
 _atom_site_fract_y
 _atom_site_fract_z
 _atom_site_occupancy
  Ag  Ag0  1  0.12283918  0.62283918  0.87716082  1
  Ag  Ag1  1  0.12283918  0.87716082  0.37716082  1
  Ag  Ag2  1  0.37716082  0.12283918  0.87716082  1
  Ag  Ag3  1  0.37716082  0.37716082  0.37716082  1
  Ag  Ag4  1  0.62283918  0.62283918  0.62283918  1
  Ag  Ag5  1  0.62283918  0.87716082  0.12283918  1
  Ag  Ag6  1  0.87716082  0.12283918  0.62283918  1
  Ag  Ag7  1  0.87716082  0.37716082  0.12283918  1
  Ta  Ta0  1  0.00000000  0.00000000  0.00000000  1
  Ta  Ta1  1  0.00000000  0.50000000  0.50000000  1
  Ta  Ta2  1  0.50000000  0.00000000  0.50000000  1
  Ta  Ta3  1  0.50000000  0.50000000  0.00000000  1
