# generated using pymatgen
data_2107_K6Ni4
_symmetry_space_group_name_H-M   'Fdd2'
_cell_length_a   11.07873481
_cell_length_b   9.74475677
_cell_length_c   7.17835503
_cell_angle_alpha   80.22579099
_cell_angle_beta   60.09156388
_cell_angle_gamma   39.68264513
_chemical_formula_structural   K6Ni4
_chemical_formula_sum   'K6 Ni4'
_cell_volume   395.59858953
loop_
 _symmetry_equiv_pos_site_id
 _symmetry_equiv_pos_as_xyz
  1  'x, y, z'
loop_
 _atom_type_symbol
  K
  Ni
loop_
 _atom_site_type_symbol
 _atom_site_label
 _atom_site_symmetry_multiplicity
 _atom_site_fract_x
 _atom_site_fract_y
 _atom_site_fract_z
 _atom_site_occupancy
  K  K0  1  0.79972915  0.43226861  0.32717724  1
  K  K1  1  0.44082500  0.32717724  0.43226861  1
  K  K2  1  0.81773139  0.45027085  0.80917500  1
  K  K3  1  0.92282276  0.80917500  0.45027085  1
  K  K4  1  0.00987809  0.99012191  0.99012191  1
  K  K5  1  0.25987809  0.24012191  0.24012191  1
  Ni  Ni0  1  0.24639274  0.86217742  0.38825482  1
  Ni  Ni1  1  0.50317502  0.38825482  0.86217742  1
  Ni  Ni2  1  0.38782258  0.00360726  0.74682498  1
  Ni  Ni3  1  0.86174518  0.74682498  0.00360726  1
