# generated using pymatgen
data_2108_Ga5Pt24
_symmetry_space_group_name_H-M   'I-43m'
_cell_length_a   8.51315654
_cell_length_b   8.51315654
_cell_length_c   8.51315654
_cell_angle_alpha   109.47122063
_cell_angle_beta   109.47122063
_cell_angle_gamma   109.47122063
_chemical_formula_structural   Ga5Pt24
_chemical_formula_sum   'Ga5 Pt24'
_cell_volume   474.95226932
loop_
 _symmetry_equiv_pos_site_id
 _symmetry_equiv_pos_as_xyz
  1  'x, y, z'
loop_
 _atom_type_symbol
  Ga
  Pt
loop_
 _atom_site_type_symbol
 _atom_site_label
 _atom_site_symmetry_multiplicity
 _atom_site_fract_x
 _atom_site_fract_y
 _atom_site_fract_z
 _atom_site_occupancy
  Ga  Ga0  1  0.00000000  0.62391158  0.00000000  1
  Ga  Ga1  1  0.62391158  0.00000000  0.00000000  1
  Ga  Ga2  1  0.00000000  0.00000000  0.62391158  1
  Ga  Ga3  1  0.37608842  0.37608842  0.37608842  1
  Ga  Ga4  1  0.00000000  0.00000000  0.00000000  1
  Pt  Pt0  1  0.19063090  0.37853891  0.00000000  1
  Pt  Pt1  1  0.37853891  0.19063090  0.00000000  1
  Pt  Pt2  1  0.80936910  0.80936910  0.18790801  1
  Pt  Pt3  1  0.62146109  0.62146109  0.81209199  1
  Pt  Pt4  1  0.80936910  0.18790801  0.80936910  1
  Pt  Pt5  1  0.62146109  0.81209199  0.62146109  1
  Pt  Pt6  1  0.37853891  0.00000000  0.19063090  1
  Pt  Pt7  1  0.19063090  0.00000000  0.37853891  1
  Pt  Pt8  1  0.00000000  0.37853891  0.19063090  1
  Pt  Pt9  1  0.00000000  0.19063090  0.37853891  1
  Pt  Pt10  1  0.81209199  0.62146109  0.62146109  1
  Pt  Pt11  1  0.18790801  0.80936910  0.80936910  1
  Pt  Pt12  1  0.70022644  0.42767707  0.00000000  1
  Pt  Pt13  1  0.42767707  0.70022644  0.00000000  1
  Pt  Pt14  1  0.29977356  0.29977356  0.72745063  1
  Pt  Pt15  1  0.57232293  0.57232293  0.27254937  1
  Pt  Pt16  1  0.29977356  0.72745063  0.29977356  1
  Pt  Pt17  1  0.57232293  0.27254937  0.57232293  1
  Pt  Pt18  1  0.42767707  0.00000000  0.70022644  1
  Pt  Pt19  1  0.70022644  0.00000000  0.42767707  1
  Pt  Pt20  1  0.00000000  0.42767707  0.70022644  1
  Pt  Pt21  1  1.00000000  0.70022644  0.42767707  1
  Pt  Pt22  1  0.27254937  0.57232293  0.57232293  1
  Pt  Pt23  1  0.72745063  0.29977356  0.29977356  1
