# generated using pymatgen
data_2109_BaCu5
_symmetry_space_group_name_H-M   'Cmmm'
_cell_length_a   5.60537969
_cell_length_b   5.60537969
_cell_length_c   4.51375619
_cell_angle_alpha   90.00000000
_cell_angle_beta   90.00000000
_cell_angle_gamma   127.08888368
_chemical_formula_structural   BaCu5
_chemical_formula_sum   'Ba1 Cu5'
_cell_volume   113.13273231
loop_
 _symmetry_equiv_pos_site_id
 _symmetry_equiv_pos_as_xyz
  1  'x, y, z'
loop_
 _atom_type_symbol
  Ba
  Cu
loop_
 _atom_site_type_symbol
 _atom_site_label
 _atom_site_symmetry_multiplicity
 _atom_site_fract_x
 _atom_site_fract_y
 _atom_site_fract_z
 _atom_site_occupancy
  Ba  Ba0  1  0.97220050  0.02779950  0.00000000  1
  Cu  Cu0  1  0.71504416  0.28495584  0.50000000  1
  Cu  Cu1  1  0.64811970  0.35188030  0.00000000  1
  Cu  Cu2  1  0.47230158  0.52769842  0.50000000  1
  Cu  Cu3  1  0.29643274  0.70356726  0.00000000  1
  Cu  Cu4  1  0.22923464  0.77076536  0.50000000  1
