# generated using pymatgen
data_210_Al18Pb6
_symmetry_space_group_name_H-M   'Pmmn'
_cell_length_a   6.15626419
_cell_length_b   6.43567076
_cell_length_c   13.20487408
_cell_angle_alpha   90.00000000
_cell_angle_beta   90.00000000
_cell_angle_gamma   90.00000000
_chemical_formula_structural   Al18Pb6
_chemical_formula_sum   'Al18 Pb6'
_cell_volume   523.17301012
loop_
 _symmetry_equiv_pos_site_id
 _symmetry_equiv_pos_as_xyz
  1  'x, y, z'
loop_
 _atom_type_symbol
  Al
  Pb
loop_
 _atom_site_type_symbol
 _atom_site_label
 _atom_site_symmetry_multiplicity
 _atom_site_fract_x
 _atom_site_fract_y
 _atom_site_fract_z
 _atom_site_occupancy
  Al  Al0  1  0.18444521  0.03223973  0.43544029  1
  Al  Al1  1  0.18444521  0.03223973  0.06455971  1
  Al  Al2  1  0.57625819  0.04478371  0.75000000  1
  Al  Al3  1  0.42374181  0.95521629  0.25000000  1
  Al  Al4  1  0.81555479  0.96776027  0.93544029  1
  Al  Al5  1  0.81555479  0.96776027  0.56455971  1
  Al  Al6  1  0.12556626  0.25000000  0.25000000  1
  Al  Al7  1  0.45412652  0.25000000  0.92547573  1
  Al  Al8  1  0.45412652  0.25000000  0.57452427  1
  Al  Al9  1  0.18444521  0.46776027  0.43544029  1
  Al  Al10  1  0.18444521  0.46776027  0.06455971  1
  Al  Al11  1  0.57625819  0.45521629  0.75000000  1
  Al  Al12  1  0.42374181  0.54478371  0.25000000  1
  Al  Al13  1  0.81555479  0.53223973  0.93544029  1
  Al  Al14  1  0.81555479  0.53223973  0.56455971  1
  Al  Al15  1  0.87443374  0.75000000  0.75000000  1
  Al  Al16  1  0.54587348  0.75000000  0.42547573  1
  Al  Al17  1  0.54587348  0.75000000  0.07452427  1
  Pb  Pb0  1  0.06101223  0.25000000  0.75000000  1
  Pb  Pb1  1  0.72332632  0.25000000  0.37912239  1
  Pb  Pb2  1  0.72332632  0.25000000  0.12087761  1
  Pb  Pb3  1  0.93898777  0.75000000  0.25000000  1
  Pb  Pb4  1  0.27667368  0.75000000  0.87912239  1
  Pb  Pb5  1  0.27667368  0.75000000  0.62087761  1
