# generated using pymatgen
data_2112_Ag6Al2
_symmetry_space_group_name_H-M   'Pmmn'
_cell_length_a   2.91891308
_cell_length_b   11.74010660
_cell_length_c   4.00691893
_cell_angle_alpha   90.00000000
_cell_angle_beta   90.00000000
_cell_angle_gamma   90.00000000
_chemical_formula_structural   Ag6Al2
_chemical_formula_sum   'Ag6 Al2'
_cell_volume   137.31050318
loop_
 _symmetry_equiv_pos_site_id
 _symmetry_equiv_pos_as_xyz
  1  'x, y, z'
loop_
 _atom_type_symbol
  Ag
  Al
loop_
 _atom_site_type_symbol
 _atom_site_label
 _atom_site_symmetry_multiplicity
 _atom_site_fract_x
 _atom_site_fract_y
 _atom_site_fract_z
 _atom_site_occupancy
  Ag  Ag0  1  0.00000000  0.99331356  0.00000000  1
  Ag  Ag1  1  0.50000000  0.12330852  0.50000000  1
  Ag  Ag2  1  0.00000000  0.25169148  0.00000000  1
  Ag  Ag3  1  0.50000000  0.38168644  0.50000000  1
  Ag  Ag4  1  0.50000000  0.62244757  0.50000000  1
  Ag  Ag5  1  0.00000000  0.75255243  0.00000000  1
  Al  Al0  1  0.00000000  0.50044889  0.00000000  1
  Al  Al1  1  0.50000000  0.87455111  0.50000000  1
