# generated using pymatgen
data_2119_WSb
_symmetry_space_group_name_H-M   'Pm -3 m'
_cell_length_a   4.70992307
_cell_length_b   3.33102543
_cell_length_c   5.76953062
_cell_angle_alpha   54.73940122
_cell_angle_beta   90.00000000
_cell_angle_gamma   90.00000000
_chemical_formula_structural   WSb
_chemical_formula_sum   'Sb2 W2'
_cell_volume   73.91063486
loop_
 _symmetry_equiv_pos_site_id
 _symmetry_equiv_pos_as_xyz
  1  'x, y, z'
loop_
 _atom_type_symbol
  Sb
  W
loop_
 _atom_site_type_symbol
 _atom_site_label
 _atom_site_symmetry_multiplicity
 _atom_site_fract_x
 _atom_site_fract_y
 _atom_site_fract_z
 _atom_site_occupancy
  Sb  Sb0  1  0.75000000  0.25092603  0.75022675  1
  Sb  Sb1  1  0.25000000  0.74907397  0.24977325  1
  W  W0  1  0.75000000  0.25086470  0.25005620  1
  W  W1  1  0.25000000  0.74913530  0.74994380  1
