# generated using pymatgen
data_211_WSb
_symmetry_space_group_name_H-M   'P-6m2'
_cell_length_a   3.29452165
_cell_length_b   3.29449125
_cell_length_c   4.09641265
_cell_angle_alpha   90.00000000
_cell_angle_beta   90.00000000
_cell_angle_gamma   120.00029455
_chemical_formula_structural   WSb
_chemical_formula_sum   'Sb1 W1'
_cell_volume   38.50470188
loop_
 _symmetry_equiv_pos_site_id
 _symmetry_equiv_pos_as_xyz
  1  'x, y, z'
loop_
 _atom_type_symbol
  Sb
  W
loop_
 _atom_site_type_symbol
 _atom_site_label
 _atom_site_symmetry_multiplicity
 _atom_site_fract_x
 _atom_site_fract_y
 _atom_site_fract_z
 _atom_site_occupancy
  Sb  Sb0  1  0.66666777  0.33333454  0.75000000  1
  W  W0  1  0.33333223  0.66666546  0.25000000  1
