# generated using pymatgen
data_2122_CaGa4
_symmetry_space_group_name_H-M   'C2/m'
_cell_length_a   4.36400713
_cell_length_b   4.36400713
_cell_length_c   6.13822611
_cell_angle_alpha   110.14959444
_cell_angle_beta   69.85040556
_cell_angle_gamma   90.44324129
_chemical_formula_structural   CaGa4
_chemical_formula_sum   'Ca1 Ga4'
_cell_volume   102.20904652
loop_
 _symmetry_equiv_pos_site_id
 _symmetry_equiv_pos_as_xyz
  1  'x, y, z'
loop_
 _atom_type_symbol
  Ca
  Ga
loop_
 _atom_site_type_symbol
 _atom_site_label
 _atom_site_symmetry_multiplicity
 _atom_site_fract_x
 _atom_site_fract_y
 _atom_site_fract_z
 _atom_site_occupancy
  Ca  Ca0  1  0.00000000  0.00000000  0.00000000  1
  Ga  Ga0  1  0.40497240  0.59502752  0.23039562  1
  Ga  Ga1  1  0.23247923  0.23248010  0.50000076  1
  Ga  Ga2  1  0.76751982  0.76752069  0.50000076  1
  Ga  Ga3  1  0.59502665  0.40497327  0.76960590  1
