# generated using pymatgen
data_212_Fe2Ga4
_symmetry_space_group_name_H-M   'I4/mcm'
_cell_length_a   4.91815977
_cell_length_b   4.91815977
_cell_length_c   4.91815977
_cell_angle_alpha   105.75619105
_cell_angle_beta   105.75619105
_cell_angle_gamma   117.18796590
_chemical_formula_structural   Fe2Ga4
_chemical_formula_sum   'Fe2 Ga4'
_cell_volume   90.31531814
loop_
 _symmetry_equiv_pos_site_id
 _symmetry_equiv_pos_as_xyz
  1  'x, y, z'
loop_
 _atom_type_symbol
  Fe
  Ga
loop_
 _atom_site_type_symbol
 _atom_site_label
 _atom_site_symmetry_multiplicity
 _atom_site_fract_x
 _atom_site_fract_y
 _atom_site_fract_z
 _atom_site_occupancy
  Fe  Fe0  1  0.75000000  0.75000000  0.00000000  1
  Fe  Fe1  1  0.25000000  0.25000000  0.00000000  1
  Ga  Ga0  1  0.29931251  0.20068749  0.50000000  1
  Ga  Ga1  1  0.70068749  0.79931251  0.50000000  1
  Ga  Ga2  1  0.20068749  0.70068749  0.90137497  1
  Ga  Ga3  1  0.79931251  0.29931251  0.09862503  1
