# generated using pymatgen
data_2132_P5As
_symmetry_space_group_name_H-M   'F-43m'
_cell_length_a   5.16566213
_cell_length_b   5.16566213
_cell_length_c   5.16566213
_cell_angle_alpha   60.00000000
_cell_angle_beta   60.00000000
_cell_angle_gamma   60.00000000
_chemical_formula_structural   P5As
_chemical_formula_sum   'As1 P5'
_cell_volume   97.46821046
loop_
 _symmetry_equiv_pos_site_id
 _symmetry_equiv_pos_as_xyz
  1  'x, y, z'
loop_
 _atom_type_symbol
  As
  P
loop_
 _atom_site_type_symbol
 _atom_site_label
 _atom_site_symmetry_multiplicity
 _atom_site_fract_x
 _atom_site_fract_y
 _atom_site_fract_z
 _atom_site_occupancy
  As  As0  1  0.00000000  0.00000000  0.00000000  1
  P  P0  1  0.25000000  0.25000000  0.25000000  1
  P  P1  1  0.15666036  0.61444655  0.61444655  1
  P  P2  1  0.61444655  0.15666036  0.61444655  1
  P  P3  1  0.61444655  0.61444655  0.61444655  1
  P  P4  1  0.61444655  0.61444655  0.15666036  1
