# generated using pymatgen
data_2141_P8Br16
_symmetry_space_group_name_H-M   'Fd -3 m'
_cell_length_a   9.89662410
_cell_length_b   9.89662410
_cell_length_c   9.89662410
_cell_angle_alpha   60.00000000
_cell_angle_beta   60.00000000
_cell_angle_gamma   60.00000000
_chemical_formula_structural   P8Br16
_chemical_formula_sum   'Br16 P8'
_cell_volume   685.40335600
loop_
 _symmetry_equiv_pos_site_id
 _symmetry_equiv_pos_as_xyz
  1  'x, y, z'
loop_
 _atom_type_symbol
  Br
  P
loop_
 _atom_site_type_symbol
 _atom_site_label
 _atom_site_symmetry_multiplicity
 _atom_site_fract_x
 _atom_site_fract_y
 _atom_site_fract_z
 _atom_site_occupancy
  Br  Br0  1  0.00000000  0.50000000  0.00000000  1
  Br  Br1  1  0.50000000  0.00000000  0.00000000  1
  Br  Br2  1  0.50000000  0.50000000  0.00000000  1
  Br  Br3  1  0.50000000  0.50000000  0.50000000  1
  Br  Br4  1  0.95359003  0.95359003  0.79640997  1
  Br  Br5  1  0.95359003  0.29640997  0.79640997  1
  Br  Br6  1  0.29640997  0.95359003  0.79640997  1
  Br  Br7  1  0.95359003  0.29640997  0.45359003  1
  Br  Br8  1  0.29640997  0.95359003  0.45359003  1
  Br  Br9  1  0.29640997  0.29640997  0.45359003  1
  Br  Br10  1  0.04640997  0.04640997  0.20359003  1
  Br  Br11  1  0.04640997  0.70359003  0.20359003  1
  Br  Br12  1  0.70359003  0.04640997  0.20359003  1
  Br  Br13  1  0.04640997  0.70359003  0.54640997  1
  Br  Br14  1  0.70359003  0.04640997  0.54640997  1
  Br  Br15  1  0.70359003  0.70359003  0.54640997  1
  P  P0  1  0.68336277  0.68336277  0.94991170  1
  P  P1  1  0.68336277  0.68336277  0.18336277  1
  P  P2  1  0.68336277  0.44991170  0.18336277  1
  P  P3  1  0.44991170  0.68336277  0.18336277  1
  P  P4  1  0.31663723  0.31663723  0.05008830  1
  P  P5  1  0.31663723  0.31663723  0.81663723  1
  P  P6  1  0.31663723  0.55008830  0.81663723  1
  P  P7  1  0.55008830  0.31663723  0.81663723  1
