# generated using pymatgen
data_2143_VW2
_symmetry_space_group_name_H-M   'I4/mmm'
_cell_length_a   3.11885339
_cell_length_b   5.16606969
_cell_length_c   6.25455038
_cell_angle_alpha   72.46061275
_cell_angle_beta   90.00000000
_cell_angle_gamma   107.56931732
_chemical_formula_structural   VW2
_chemical_formula_sum   'V2 W4'
_cell_volume   91.14744286
loop_
 _symmetry_equiv_pos_site_id
 _symmetry_equiv_pos_as_xyz
  1  'x, y, z'
loop_
 _atom_type_symbol
  V
  W
loop_
 _atom_site_type_symbol
 _atom_site_label
 _atom_site_symmetry_multiplicity
 _atom_site_fract_x
 _atom_site_fract_y
 _atom_site_fract_z
 _atom_site_occupancy
  V  V0  1  0.36104415  0.72208831  0.77823668  1
  V  V1  1  0.36117807  0.72235614  0.27731888  1
  W  W0  1  0.02574029  0.05148059  0.94542393  1
  W  W1  1  0.69634249  0.39268498  0.61036496  1
  W  W2  1  0.02587973  0.05175947  0.44519060  1
  W  W3  1  0.69648193  0.39296386  0.11013163  1
