# generated using pymatgen
data_2144_Al6Cu2
_symmetry_space_group_name_H-M   'Cmcm'
_cell_length_a   5.51214853
_cell_length_b   5.51214853
_cell_length_c   4.60400215
_cell_angle_alpha   90.00000000
_cell_angle_beta   90.00000000
_cell_angle_gamma   120.02007642
_chemical_formula_structural   Al6Cu2
_chemical_formula_sum   'Al6 Cu2'
_cell_volume   121.12117585
loop_
 _symmetry_equiv_pos_site_id
 _symmetry_equiv_pos_as_xyz
  1  'x, y, z'
loop_
 _atom_type_symbol
  Al
  Cu
loop_
 _atom_site_type_symbol
 _atom_site_label
 _atom_site_symmetry_multiplicity
 _atom_site_fract_x
 _atom_site_fract_y
 _atom_site_fract_z
 _atom_site_occupancy
  Al  Al0  1  0.91486062  0.08513938  0.75000000  1
  Al  Al1  1  0.08513938  0.91486062  0.25000000  1
  Al  Al2  1  0.90688860  0.58355736  0.75000000  1
  Al  Al3  1  0.09311140  0.41644264  0.25000000  1
  Al  Al4  1  0.41644264  0.09311140  0.75000000  1
  Al  Al5  1  0.58355736  0.90688860  0.25000000  1
  Cu  Cu0  1  0.58928487  0.41071513  0.25000000  1
  Cu  Cu1  1  0.41071513  0.58928487  0.75000000  1
