# generated using pymatgen
data_2148_Sn2W2
_symmetry_space_group_name_H-M   'P4/nmm'
_cell_length_a   3.68485184
_cell_length_b   3.68485184
_cell_length_c   6.70650049
_cell_angle_alpha   90.00000000
_cell_angle_beta   90.00000000
_cell_angle_gamma   90.00000000
_chemical_formula_structural   Sn2W2
_chemical_formula_sum   'Sn2 W2'
_cell_volume   91.06175617
loop_
 _symmetry_equiv_pos_site_id
 _symmetry_equiv_pos_as_xyz
  1  'x, y, z'
loop_
 _atom_type_symbol
  Sn
  W
loop_
 _atom_site_type_symbol
 _atom_site_label
 _atom_site_symmetry_multiplicity
 _atom_site_fract_x
 _atom_site_fract_y
 _atom_site_fract_z
 _atom_site_occupancy
  Sn  Sn0  1  0.25000000  0.25000000  0.34529773  1
  Sn  Sn1  1  0.75000000  0.75000000  0.65470227  1
  W  W0  1  0.25000000  0.75000000  0.00000000  1
  W  W1  1  0.75000000  0.25000000  0.00000000  1
