# generated using pymatgen
data_2149_NaPt2
_symmetry_space_group_name_H-M   'I4/mmm'
_cell_length_a   7.06291678
_cell_length_b   7.06291678
_cell_length_c   7.06291678
_cell_angle_alpha   157.50148050
_cell_angle_beta   157.50148050
_cell_angle_gamma   32.02910048
_chemical_formula_structural   NaPt2
_chemical_formula_sum   'Na1 Pt2'
_cell_volume   51.55102294
loop_
 _symmetry_equiv_pos_site_id
 _symmetry_equiv_pos_as_xyz
  1  'x, y, z'
loop_
 _atom_type_symbol
  Na
  Pt
loop_
 _atom_site_type_symbol
 _atom_site_label
 _atom_site_symmetry_multiplicity
 _atom_site_fract_x
 _atom_site_fract_y
 _atom_site_fract_z
 _atom_site_occupancy
  Na  Na0  1  0.00000000  0.00000000  0.00000000  1
  Pt  Pt0  1  0.32491047  0.32491047  0.00000000  1
  Pt  Pt1  1  0.67508953  0.67508953  0.00000000  1
