# generated using pymatgen
data_2151_Ba3Ta
_symmetry_space_group_name_H-M   'P4/mmm'
_cell_length_a   4.10123531
_cell_length_b   4.10123531
_cell_length_c   10.75615784
_cell_angle_alpha   90.00000000
_cell_angle_beta   90.00000000
_cell_angle_gamma   90.00000000
_chemical_formula_structural   Ba3Ta
_chemical_formula_sum   'Ba3 Ta1'
_cell_volume   180.91998466
loop_
 _symmetry_equiv_pos_site_id
 _symmetry_equiv_pos_as_xyz
  1  'x, y, z'
loop_
 _atom_type_symbol
  Ba
  Ta
loop_
 _atom_site_type_symbol
 _atom_site_label
 _atom_site_symmetry_multiplicity
 _atom_site_fract_x
 _atom_site_fract_y
 _atom_site_fract_z
 _atom_site_occupancy
  Ba  Ba0  1  0.00000000  0.00000000  0.93511268  1
  Ba  Ba1  1  0.50000000  0.50000000  0.25000000  1
  Ba  Ba2  1  0.00000000  0.00000000  0.56488732  1
  Ta  Ta0  1  0.50000000  0.50000000  0.75000000  1
