# generated using pymatgen
data_2154_Ba4In2
_symmetry_space_group_name_H-M   'I4/mcm'
_cell_length_a   7.25736341
_cell_length_b   7.25736341
_cell_length_c   7.25736341
_cell_angle_alpha   107.67382593
_cell_angle_beta   107.67382593
_cell_angle_gamma   113.12910644
_chemical_formula_structural   Ba4In2
_chemical_formula_sum   'Ba4 In2'
_cell_volume   293.34322071
loop_
 _symmetry_equiv_pos_site_id
 _symmetry_equiv_pos_as_xyz
  1  'x, y, z'
loop_
 _atom_type_symbol
  Ba
  In
loop_
 _atom_site_type_symbol
 _atom_site_label
 _atom_site_symmetry_multiplicity
 _atom_site_fract_x
 _atom_site_fract_y
 _atom_site_fract_z
 _atom_site_occupancy
  Ba  Ba0  1  0.30972012  0.19027988  0.50000000  1
  Ba  Ba1  1  0.69027988  0.80972012  0.50000000  1
  Ba  Ba2  1  0.19027988  0.69027988  0.88055976  1
  Ba  Ba3  1  0.80972012  0.30972012  0.11944024  1
  In  In0  1  0.75000000  0.75000000  0.00000000  1
  In  In1  1  0.25000000  0.25000000  0.00000000  1
