# generated using pymatgen
data_2160_SbGe3
_symmetry_space_group_name_H-M   'Imm2'
_cell_length_a   5.99799384
_cell_length_b   5.99799384
_cell_length_c   5.99799384
_cell_angle_alpha   149.65366798
_cell_angle_beta   127.26462598
_cell_angle_gamma   62.06403627
_chemical_formula_structural   SbGe3
_chemical_formula_sum   'Ge3 Sb1'
_cell_volume   85.97520553
loop_
 _symmetry_equiv_pos_site_id
 _symmetry_equiv_pos_as_xyz
  1  'x, y, z'
loop_
 _atom_type_symbol
  Ge
  Sb
loop_
 _atom_site_type_symbol
 _atom_site_label
 _atom_site_symmetry_multiplicity
 _atom_site_fract_x
 _atom_site_fract_y
 _atom_site_fract_z
 _atom_site_occupancy
  Ge  Ge0  1  0.99508582  0.99552914  0.99955667  1
  Ge  Ge1  1  0.50402753  0.50447086  0.99955667  1
  Ge  Ge2  1  0.91751517  0.25000000  0.66751517  1
  Sb  Sb0  1  0.41670482  0.75000000  0.66670482  1
