# generated using pymatgen
data_2163_NbV2
_symmetry_space_group_name_H-M   'I4/mmm'
_cell_length_a   3.09360178
_cell_length_b   5.19322723
_cell_length_c   3.09360178
_cell_angle_alpha   72.67150647
_cell_angle_beta   90.00000000
_cell_angle_gamma   107.32849353
_chemical_formula_structural   NbV2
_chemical_formula_sum   'Nb1 V2'
_cell_volume   45.07678026
loop_
 _symmetry_equiv_pos_site_id
 _symmetry_equiv_pos_as_xyz
  1  'x, y, z'
loop_
 _atom_type_symbol
  Nb
  V
loop_
 _atom_site_type_symbol
 _atom_site_label
 _atom_site_symmetry_multiplicity
 _atom_site_fract_x
 _atom_site_fract_y
 _atom_site_fract_z
 _atom_site_occupancy
  Nb  Nb0  1  0.00000000  0.00000000  0.00000000  1
  V  V0  1  0.32294896  0.64589793  0.67705104  1
  V  V1  1  0.67705104  0.35410207  0.32294896  1
