# generated using pymatgen
data_2173_Au3P
_symmetry_space_group_name_H-M   'Pmm2'
_cell_length_a   2.91872141
_cell_length_b   4.81166524
_cell_length_c   5.04559054
_cell_angle_alpha   90.00000000
_cell_angle_beta   90.00000000
_cell_angle_gamma   90.00000000
_chemical_formula_structural   Au3P
_chemical_formula_sum   'Au3 P1'
_cell_volume   70.85982123
loop_
 _symmetry_equiv_pos_site_id
 _symmetry_equiv_pos_as_xyz
  1  'x, y, z'
loop_
 _atom_type_symbol
  Au
  P
loop_
 _atom_site_type_symbol
 _atom_site_label
 _atom_site_symmetry_multiplicity
 _atom_site_fract_x
 _atom_site_fract_y
 _atom_site_fract_z
 _atom_site_occupancy
  Au  Au0  1  0.00000000  0.00000000  0.00357580  1
  Au  Au1  1  0.50000000  0.00000000  0.49508123  1
  Au  Au2  1  0.50000000  0.50000000  0.83501631  1
  P  P0  1  0.00000000  0.50000000  0.33299332  1
