# generated using pymatgen
data_2177_Ag12Br12
_symmetry_space_group_name_H-M   'Pbcm'
_cell_length_a   7.53807494
_cell_length_b   7.63623047
_cell_length_c   10.72610211
_cell_angle_alpha   90.00000000
_cell_angle_beta   90.00000000
_cell_angle_gamma   90.00000000
_chemical_formula_structural   Ag12Br12
_chemical_formula_sum   'Ag12 Br12'
_cell_volume   617.42101182
loop_
 _symmetry_equiv_pos_site_id
 _symmetry_equiv_pos_as_xyz
  1  'x, y, z'
loop_
 _atom_type_symbol
  Ag
  Br
loop_
 _atom_site_type_symbol
 _atom_site_label
 _atom_site_symmetry_multiplicity
 _atom_site_fract_x
 _atom_site_fract_y
 _atom_site_fract_z
 _atom_site_occupancy
  Ag  Ag0  1  0.25000000  0.12526311  0.18502983  1
  Ag  Ag1  1  0.75000000  0.87473689  0.81497017  1
  Ag  Ag2  1  0.25000000  0.62526311  0.81497017  1
  Ag  Ag3  1  0.75000000  0.37473689  0.18502983  1
  Ag  Ag4  1  0.25000000  0.47900868  0.46631800  1
  Ag  Ag5  1  0.75000000  0.52099132  0.53368200  1
  Ag  Ag6  1  0.25000000  0.97900868  0.53368200  1
  Ag  Ag7  1  0.75000000  0.02099132  0.46631800  1
  Ag  Ag8  1  0.00000000  0.75000000  0.12484470  1
  Ag  Ag9  1  0.50000000  0.25000000  0.87515530  1
  Ag  Ag10  1  0.00000000  0.25000000  0.87515530  1
  Ag  Ag11  1  0.50000000  0.75000000  0.12484470  1
  Br  Br0  1  0.25000000  0.48649312  0.04024476  1
  Br  Br1  1  0.75000000  0.51350688  0.95975524  1
  Br  Br2  1  0.25000000  0.98649312  0.95975524  1
  Br  Br3  1  0.75000000  0.01350688  0.04024476  1
  Br  Br4  1  0.25000000  0.77111089  0.32696421  1
  Br  Br5  1  0.75000000  0.22888911  0.67303579  1
  Br  Br6  1  0.25000000  0.27111089  0.67303579  1
  Br  Br7  1  0.75000000  0.72888911  0.32696421  1
  Br  Br8  1  0.00000000  0.75000000  0.65457078  1
  Br  Br9  1  0.50000000  0.25000000  0.34542922  1
  Br  Br10  1  0.00000000  0.25000000  0.34542922  1
  Br  Br11  1  0.50000000  0.75000000  0.65457078  1
