# generated using pymatgen
data_217_Ge8Br
_symmetry_space_group_name_H-M   'I4/mmm'
_cell_length_a   6.82868805
_cell_length_b   6.82868805
_cell_length_c   6.82868805
_cell_angle_alpha   95.98616715
_cell_angle_beta   95.98616715
_cell_angle_gamma   142.31871997
_chemical_formula_structural   Ge8Br
_chemical_formula_sum   'Br1 Ge8'
_cell_volume   184.21625257
loop_
 _symmetry_equiv_pos_site_id
 _symmetry_equiv_pos_as_xyz
  1  'x, y, z'
loop_
 _atom_type_symbol
  Br
  Ge
loop_
 _atom_site_type_symbol
 _atom_site_label
 _atom_site_symmetry_multiplicity
 _atom_site_fract_x
 _atom_site_fract_y
 _atom_site_fract_z
 _atom_site_occupancy
  Br  Br0  1  0.00000000  0.00000000  0.00000000  1
  Ge  Ge0  1  0.31891265  0.68108735  0.00000000  1
  Ge  Ge1  1  0.68108735  0.31891265  0.00000000  1
  Ge  Ge2  1  1.00000000  0.34419345  0.34419345  1
  Ge  Ge3  1  0.68108735  0.68108735  0.36217470  1
  Ge  Ge4  1  0.34419345  1.00000000  0.34419345  1
  Ge  Ge5  1  0.31891265  0.31891265  0.63782530  1
  Ge  Ge6  1  0.00000000  0.65580655  0.65580655  1
  Ge  Ge7  1  0.65580655  1.00000000  0.65580655  1
