# generated using pymatgen
data_2180_Mn2V6
_symmetry_space_group_name_H-M   'I4/mmm'
_cell_length_a   3.40882693
_cell_length_b   3.40882693
_cell_length_c   9.11728473
_cell_angle_alpha   100.77444048
_cell_angle_beta   100.77444048
_cell_angle_gamma   90.00000000
_chemical_formula_structural   Mn2V6
_chemical_formula_sum   'Mn2 V6'
_cell_volume   102.17421456
loop_
 _symmetry_equiv_pos_site_id
 _symmetry_equiv_pos_as_xyz
  1  'x, y, z'
loop_
 _atom_type_symbol
  Mn
  V
loop_
 _atom_site_type_symbol
 _atom_site_label
 _atom_site_symmetry_multiplicity
 _atom_site_fract_x
 _atom_site_fract_y
 _atom_site_fract_z
 _atom_site_occupancy
  Mn  Mn0  1  0.37451485  0.37451485  0.74902971  1
  Mn  Mn1  1  0.62548515  0.62548515  0.25097029  1
  V  V0  1  0.00000000  0.50000000  0.00000000  1
  V  V1  1  0.12438076  0.12438076  0.24876152  1
  V  V2  1  0.87561924  0.87561924  0.75123848  1
  V  V3  1  0.25000000  0.75000000  0.50000000  1
  V  V4  1  0.75000000  0.25000000  0.50000000  1
  V  V5  1  0.50000000  0.00000000  0.00000000  1
