# generated using pymatgen
data_2183_Na6Pb2
_symmetry_space_group_name_H-M   'Pm -3 n'
_cell_length_a   6.17862948
_cell_length_b   6.17862948
_cell_length_c   6.17862948
_cell_angle_alpha   90.00000000
_cell_angle_beta   90.00000000
_cell_angle_gamma   90.00000000
_chemical_formula_structural   Na6Pb2
_chemical_formula_sum   'Na6 Pb2'
_cell_volume   235.87203648
loop_
 _symmetry_equiv_pos_site_id
 _symmetry_equiv_pos_as_xyz
  1  'x, y, z'
loop_
 _atom_type_symbol
  Na
  Pb
loop_
 _atom_site_type_symbol
 _atom_site_label
 _atom_site_symmetry_multiplicity
 _atom_site_fract_x
 _atom_site_fract_y
 _atom_site_fract_z
 _atom_site_occupancy
  Na  Na0  1  0.75000000  0.50000000  0.00000000  1
  Na  Na1  1  0.25000000  0.50000000  0.00000000  1
  Na  Na2  1  0.00000000  0.75000000  0.50000000  1
  Na  Na3  1  0.00000000  0.25000000  0.50000000  1
  Na  Na4  1  0.50000000  0.00000000  0.25000000  1
  Na  Na5  1  0.50000000  0.00000000  0.75000000  1
  Pb  Pb0  1  0.00000000  0.00000000  0.00000000  1
  Pb  Pb1  1  0.50000000  0.50000000  0.50000000  1
