# generated using pymatgen
data_2189_Sb6Ge2
_symmetry_space_group_name_H-M   'Pmmn'
_cell_length_a   6.06772322
_cell_length_b   5.63334254
_cell_length_c   6.35884021
_cell_angle_alpha   90.00000000
_cell_angle_beta   90.00000000
_cell_angle_gamma   90.00000000
_chemical_formula_structural   Sb6Ge2
_chemical_formula_sum   'Ge2 Sb6'
_cell_volume   217.35509938
loop_
 _symmetry_equiv_pos_site_id
 _symmetry_equiv_pos_as_xyz
  1  'x, y, z'
loop_
 _atom_type_symbol
  Ge
  Sb
loop_
 _atom_site_type_symbol
 _atom_site_label
 _atom_site_symmetry_multiplicity
 _atom_site_fract_x
 _atom_site_fract_y
 _atom_site_fract_z
 _atom_site_occupancy
  Ge  Ge0  1  0.00000000  0.46841834  0.00000000  1
  Ge  Ge1  1  0.50000000  0.53158166  0.50000000  1
  Sb  Sb0  1  0.50000000  0.49955930  0.00000000  1
  Sb  Sb1  1  0.00000000  0.50044070  0.50000000  1
  Sb  Sb2  1  0.00000000  0.00594712  0.25023872  1
  Sb  Sb3  1  0.00000000  0.00594712  0.74976128  1
  Sb  Sb4  1  0.50000000  0.99405288  0.75023872  1
  Sb  Sb5  1  0.50000000  0.99405288  0.24976128  1
