# generated using pymatgen
data_218_Ag5Al2
_symmetry_space_group_name_H-M   'I4/mmm'
_cell_length_a   14.54822920
_cell_length_b   2.90617433
_cell_length_c   2.90617433
_cell_angle_alpha   90.00000009
_cell_angle_beta   84.26772816
_cell_angle_gamma   84.26772815
_chemical_formula_structural   Ag5Al2
_chemical_formula_sum   'Ag5 Al2'
_cell_volume   121.64019522
loop_
 _symmetry_equiv_pos_site_id
 _symmetry_equiv_pos_as_xyz
  1  'x, y, z'
loop_
 _atom_type_symbol
  Ag
  Al
loop_
 _atom_site_type_symbol
 _atom_site_label
 _atom_site_symmetry_multiplicity
 _atom_site_fract_x
 _atom_site_fract_y
 _atom_site_fract_z
 _atom_site_occupancy
  Ag  Ag0  1  0.98991184  0.00504408  0.00504408  1
  Ag  Ag1  1  0.13958594  0.43020703  0.43020703  1
  Ag  Ag2  1  0.28571429  0.85714286  0.85714286  1
  Ag  Ag3  1  0.43184263  0.28407868  0.28407868  1
  Ag  Ag4  1  0.58151673  0.70924163  0.70924163  1
  Al  Al0  1  0.71595639  0.14202181  0.14202181  1
  Al  Al1  1  0.85547218  0.57226391  0.57226391  1
