# generated using pymatgen
data_2196_Ca4Cr2
_symmetry_space_group_name_H-M   'I4_1/amd'
_cell_length_a   14.42711718
_cell_length_b   14.42711718
_cell_length_c   14.42711718
_cell_angle_alpha   165.27322865
_cell_angle_beta   165.27322865
_cell_angle_gamma   20.88494818
_chemical_formula_structural   Ca4Cr2
_chemical_formula_sum   'Ca4 Cr2'
_cell_volume   194.02734050
loop_
 _symmetry_equiv_pos_site_id
 _symmetry_equiv_pos_as_xyz
  1  'x, y, z'
loop_
 _atom_type_symbol
  Ca
  Cr
loop_
 _atom_site_type_symbol
 _atom_site_label
 _atom_site_symmetry_multiplicity
 _atom_site_fract_x
 _atom_site_fract_y
 _atom_site_fract_z
 _atom_site_occupancy
  Ca  Ca0  1  0.56706726  0.56706726  0.00000000  1
  Ca  Ca1  1  0.68293274  0.18293274  0.50000000  1
  Ca  Ca2  1  0.43293274  0.43293274  0.00000000  1
  Ca  Ca3  1  0.81706726  0.31706726  0.50000000  1
  Cr  Cr0  1  0.00000000  0.00000000  0.00000000  1
  Cr  Cr1  1  0.25000000  0.75000000  0.50000000  1
