# generated using pymatgen
data_2198_CrNa3
_symmetry_space_group_name_H-M   'Immm'
_cell_length_a   6.61649668
_cell_length_b   6.61649668
_cell_length_c   6.61649668
_cell_angle_alpha   149.36749287
_cell_angle_beta   129.03256342
_cell_angle_gamma   60.64528269
_chemical_formula_structural   CrNa3
_chemical_formula_sum   'Cr1 Na3'
_cell_volume   113.66438488
loop_
 _symmetry_equiv_pos_site_id
 _symmetry_equiv_pos_as_xyz
  1  'x, y, z'
loop_
 _atom_type_symbol
  Cr
  Na
loop_
 _atom_site_type_symbol
 _atom_site_label
 _atom_site_symmetry_multiplicity
 _atom_site_fract_x
 _atom_site_fract_y
 _atom_site_fract_z
 _atom_site_occupancy
  Cr  Cr0  1  0.00000000  0.00000000  0.00000000  1
  Na  Na0  1  0.24020072  0.74020072  0.50000000  1
  Na  Na1  1  0.50000000  0.50000000  1.00000000  1
  Na  Na2  1  0.75979928  0.25979928  0.50000000  1
