# generated using pymatgen
data_21_In2Sn4
_symmetry_space_group_name_H-M   'C2/m'
_cell_length_a   6.56008219
_cell_length_b   6.56008219
_cell_length_c   8.13435795
_cell_angle_alpha   74.19253938
_cell_angle_beta   74.19253938
_cell_angle_gamma   29.36603746
_chemical_formula_structural   In2Sn4
_chemical_formula_sum   'In2 Sn4'
_cell_volume   164.71766523
loop_
 _symmetry_equiv_pos_site_id
 _symmetry_equiv_pos_as_xyz
  1  'x, y, z'
loop_
 _atom_type_symbol
  In
  Sn
loop_
 _atom_site_type_symbol
 _atom_site_label
 _atom_site_symmetry_multiplicity
 _atom_site_fract_x
 _atom_site_fract_y
 _atom_site_fract_z
 _atom_site_occupancy
  In  In0  1  0.99949950  0.99949950  0.99998886  1
  In  In1  1  0.61161161  0.61161161  0.27778892  1
  Sn  Sn0  1  0.33298433  0.33298433  0.33790030  1
  Sn  Sn1  1  0.66875107  0.66875107  0.66458001  1
  Sn  Sn2  1  0.94236004  0.94236004  0.61319777  1
  Sn  Sn3  1  0.27812678  0.27812678  0.93987748  1
