# generated using pymatgen
data_2200_Al3Sn
_symmetry_space_group_name_H-M   'Immm'
_cell_length_a   5.64921290
_cell_length_b   5.64921290
_cell_length_c   5.64921290
_cell_angle_alpha   144.31082130
_cell_angle_beta   129.33794063
_cell_angle_gamma   63.50710157
_chemical_formula_structural   Al3Sn
_chemical_formula_sum   'Al3 Sn1'
_cell_volume   80.39610112
loop_
 _symmetry_equiv_pos_site_id
 _symmetry_equiv_pos_as_xyz
  1  'x, y, z'
loop_
 _atom_type_symbol
  Al
  Sn
loop_
 _atom_site_type_symbol
 _atom_site_label
 _atom_site_symmetry_multiplicity
 _atom_site_fract_x
 _atom_site_fract_y
 _atom_site_fract_z
 _atom_site_occupancy
  Al  Al0  1  0.98561847  0.98561847  0.00000000  1
  Al  Al1  1  0.75000000  0.25000000  0.50000000  1
  Al  Al2  1  0.51438153  0.51438153  1.00000000  1
  Sn  Sn0  1  0.25000000  0.75000000  0.50000000  1
