# generated using pymatgen
data_2201_TaV2
_symmetry_space_group_name_H-M   'Fmmm'
_cell_length_a   3.14541773
_cell_length_b   6.59989083
_cell_length_c   4.53361072
_cell_angle_alpha   90.00000000
_cell_angle_beta   90.00000000
_cell_angle_gamma   76.21417668
_chemical_formula_structural   TaV2
_chemical_formula_sum   'Ta2 V4'
_cell_volume   91.40395195
loop_
 _symmetry_equiv_pos_site_id
 _symmetry_equiv_pos_as_xyz
  1  'x, y, z'
loop_
 _atom_type_symbol
  Ta
  V
loop_
 _atom_site_type_symbol
 _atom_site_label
 _atom_site_symmetry_multiplicity
 _atom_site_fract_x
 _atom_site_fract_y
 _atom_site_fract_z
 _atom_site_occupancy
  Ta  Ta0  1  0.02806236  0.94387528  0.00000000  1
  Ta  Ta1  1  0.52749320  0.94501361  0.50000000  1
  V  V0  1  0.70421209  0.59157582  0.00000000  1
  V  V1  1  0.35178262  0.29643476  0.00000000  1
  V  V2  1  0.20377294  0.59245413  0.50000000  1
  V  V3  1  0.85134347  0.29731307  0.50000000  1
