# generated using pymatgen
data_2203_Ba2Sn2
_symmetry_space_group_name_H-M   'Cmcm'
_cell_length_a   6.93583962
_cell_length_b   6.93583962
_cell_length_c   4.72218329
_cell_angle_alpha   90.00000000
_cell_angle_beta   90.00000000
_cell_angle_gamma   134.54860709
_chemical_formula_structural   Ba2Sn2
_chemical_formula_sum   'Ba2 Sn2'
_cell_volume   161.89021880
loop_
 _symmetry_equiv_pos_site_id
 _symmetry_equiv_pos_as_xyz
  1  'x, y, z'
loop_
 _atom_type_symbol
  Ba
  Sn
loop_
 _atom_site_type_symbol
 _atom_site_label
 _atom_site_symmetry_multiplicity
 _atom_site_fract_x
 _atom_site_fract_y
 _atom_site_fract_z
 _atom_site_occupancy
  Ba  Ba0  1  0.86414283  0.13585717  0.75000000  1
  Ba  Ba1  1  0.13585717  0.86414283  0.25000000  1
  Sn  Sn0  1  0.57281754  0.42718246  0.75000000  1
  Sn  Sn1  1  0.42718246  0.57281754  0.25000000  1
