# generated using pymatgen
data_2212_P2As2
_symmetry_space_group_name_H-M   'Fd -3 m'
_cell_length_a   4.56745583
_cell_length_b   4.56745583
_cell_length_c   4.56745583
_cell_angle_alpha   60.00000000
_cell_angle_beta   60.00000000
_cell_angle_gamma   60.00000000
_chemical_formula_structural   P2As2
_chemical_formula_sum   'As2 P2'
_cell_volume   67.37644161
loop_
 _symmetry_equiv_pos_site_id
 _symmetry_equiv_pos_as_xyz
  1  'x, y, z'
loop_
 _atom_type_symbol
  As
  P
loop_
 _atom_site_type_symbol
 _atom_site_label
 _atom_site_symmetry_multiplicity
 _atom_site_fract_x
 _atom_site_fract_y
 _atom_site_fract_z
 _atom_site_occupancy
  As  As0  1  0.00000000  0.00000000  0.00000000  1
  As  As1  1  0.75000000  0.75000000  0.75000000  1
  P  P0  1  0.50000000  0.50000000  0.50000000  1
  P  P1  1  0.25000000  0.25000000  0.25000000  1
