# generated using pymatgen
data_2213_Ir16Pd8
_symmetry_space_group_name_H-M   'Fd -3 m'
_cell_length_a   8.10361584
_cell_length_b   8.10361584
_cell_length_c   8.10361584
_cell_angle_alpha   60.00000000
_cell_angle_beta   60.00000000
_cell_angle_gamma   60.00000000
_chemical_formula_structural   Ir16Pd8
_chemical_formula_sum   'Ir16 Pd8'
_cell_volume   376.28901106
loop_
 _symmetry_equiv_pos_site_id
 _symmetry_equiv_pos_as_xyz
  1  'x, y, z'
loop_
 _atom_type_symbol
  Ir
  Pd
loop_
 _atom_site_type_symbol
 _atom_site_label
 _atom_site_symmetry_multiplicity
 _atom_site_fract_x
 _atom_site_fract_y
 _atom_site_fract_z
 _atom_site_occupancy
  Ir  Ir0  1  0.50000000  0.00000000  0.50000000  1
  Ir  Ir1  1  0.50000000  0.00000000  0.00000000  1
  Ir  Ir2  1  0.00000000  0.00000000  0.50000000  1
  Ir  Ir3  1  0.50000000  0.50000000  0.50000000  1
  Ir  Ir4  1  0.32034788  0.82034788  0.92965212  1
  Ir  Ir5  1  0.92965212  0.82034788  0.32034788  1
  Ir  Ir6  1  0.92965212  0.82034788  0.92965212  1
  Ir  Ir7  1  0.32034788  0.42965212  0.32034788  1
  Ir  Ir8  1  0.32034788  0.42965212  0.92965212  1
  Ir  Ir9  1  0.92965212  0.42965212  0.32034788  1
  Ir  Ir10  1  0.67965212  0.17965212  0.07034788  1
  Ir  Ir11  1  0.07034788  0.17965212  0.67965212  1
  Ir  Ir12  1  0.07034788  0.17965212  0.07034788  1
  Ir  Ir13  1  0.67965212  0.57034788  0.67965212  1
  Ir  Ir14  1  0.67965212  0.57034788  0.07034788  1
  Ir  Ir15  1  0.07034788  0.57034788  0.67965212  1
  Pd  Pd0  1  0.71673240  0.84980280  0.71673240  1
  Pd  Pd1  1  0.34980280  0.21673240  0.71673240  1
  Pd  Pd2  1  0.71673240  0.21673240  0.34980280  1
  Pd  Pd3  1  0.71673240  0.21673240  0.71673240  1
  Pd  Pd4  1  0.28326760  0.15019720  0.28326760  1
  Pd  Pd5  1  0.65019720  0.78326760  0.28326760  1
  Pd  Pd6  1  0.28326760  0.78326760  0.65019720  1
  Pd  Pd7  1  0.28326760  0.78326760  0.28326760  1
