# generated using pymatgen
data_2214_Mn16W4
_symmetry_space_group_name_H-M   'I-43m'
_cell_length_a   7.04958371
_cell_length_b   7.04958371
_cell_length_c   7.04958371
_cell_angle_alpha   109.47122063
_cell_angle_beta   109.47122063
_cell_angle_gamma   109.47122063
_chemical_formula_structural   Mn16W4
_chemical_formula_sum   'Mn16 W4'
_cell_volume   269.69228577
loop_
 _symmetry_equiv_pos_site_id
 _symmetry_equiv_pos_as_xyz
  1  'x, y, z'
loop_
 _atom_type_symbol
  Mn
  W
loop_
 _atom_site_type_symbol
 _atom_site_label
 _atom_site_symmetry_multiplicity
 _atom_site_fract_x
 _atom_site_fract_y
 _atom_site_fract_z
 _atom_site_occupancy
  Mn  Mn0  1  0.29444589  0.29444589  0.29444589  1
  Mn  Mn1  1  1.00000000  0.00000000  0.70555411  1
  Mn  Mn2  1  1.00000000  0.70555411  0.00000000  1
  Mn  Mn3  1  0.70555411  0.00000000  0.00000000  1
  Mn  Mn4  1  1.00000000  0.33368558  0.33368558  1
  Mn  Mn5  1  1.00000000  0.66631442  0.66631442  1
  Mn  Mn6  1  0.33368558  0.00000000  0.33368558  1
  Mn  Mn7  1  0.66631442  0.00000000  0.66631442  1
  Mn  Mn8  1  0.33368558  0.33368558  0.00000000  1
  Mn  Mn9  1  0.66631442  0.66631442  0.00000000  1
  Mn  Mn10  1  0.50000000  0.25001955  0.75001955  1
  Mn  Mn11  1  0.50000000  0.74998045  0.24998045  1
  Mn  Mn12  1  0.75001955  0.50000000  0.25001955  1
  Mn  Mn13  1  0.24998045  0.50000000  0.74998045  1
  Mn  Mn14  1  0.25001955  0.75001955  0.50000000  1
  Mn  Mn15  1  0.74998045  0.24998045  0.50000000  1
  W  W0  1  0.62594839  0.62594839  0.62594839  1
  W  W1  1  0.00000000  0.00000000  0.37405161  1
  W  W2  1  0.00000000  0.37405161  0.00000000  1
  W  W3  1  0.37405161  0.00000000  0.00000000  1
