# generated using pymatgen
data_2217_Ir3V
_symmetry_space_group_name_H-M   'P4/mmm'
_cell_length_a   2.70937707
_cell_length_b   2.70937707
_cell_length_c   7.73429286
_cell_angle_alpha   90.00000000
_cell_angle_beta   90.00000000
_cell_angle_gamma   90.93251350
_chemical_formula_structural   Ir3V
_chemical_formula_sum   'Ir3 V1'
_cell_volume   56.76779080
loop_
 _symmetry_equiv_pos_site_id
 _symmetry_equiv_pos_as_xyz
  1  'x, y, z'
loop_
 _atom_type_symbol
  Ir
  V
loop_
 _atom_site_type_symbol
 _atom_site_label
 _atom_site_symmetry_multiplicity
 _atom_site_fract_x
 _atom_site_fract_y
 _atom_site_fract_z
 _atom_site_occupancy
  Ir  Ir0  1  1.00000000  0.00000000  0.00629814  1
  Ir  Ir1  1  1.00000000  0.00000000  0.49370186  1
  Ir  Ir2  1  0.50000000  0.50000000  0.75000000  1
  V  V0  1  0.50000000  0.50000000  0.25000000  1
