# generated using pymatgen
data_2218_Ag2Ge2
_symmetry_space_group_name_H-M   'Cmcm'
_cell_length_a   5.57435784
_cell_length_b   5.57435784
_cell_length_c   4.70791592
_cell_angle_alpha   90.00000000
_cell_angle_beta   90.00000000
_cell_angle_gamma   148.96184493
_chemical_formula_structural   Ag2Ge2
_chemical_formula_sum   'Ag2 Ge2'
_cell_volume   75.42905849
loop_
 _symmetry_equiv_pos_site_id
 _symmetry_equiv_pos_as_xyz
  1  'x, y, z'
loop_
 _atom_type_symbol
  Ag
  Ge
loop_
 _atom_site_type_symbol
 _atom_site_label
 _atom_site_symmetry_multiplicity
 _atom_site_fract_x
 _atom_site_fract_y
 _atom_site_fract_z
 _atom_site_occupancy
  Ag  Ag0  1  0.91841858  0.08158142  0.75000000  1
  Ag  Ag1  1  0.08158142  0.91841858  0.25000000  1
  Ge  Ge0  1  0.65892589  0.34107411  0.75000000  1
  Ge  Ge1  1  0.34107411  0.65892589  0.25000000  1
