# generated using pymatgen
data_223_Pd12Ta18
_symmetry_space_group_name_H-M   'P4_2/mnm'
_cell_length_a   9.97530430
_cell_length_b   9.97530430
_cell_length_c   5.15183256
_cell_angle_alpha   90.00000000
_cell_angle_beta   90.00000000
_cell_angle_gamma   90.00000000
_chemical_formula_structural   Pd12Ta18
_chemical_formula_sum   'Pd12 Ta18'
_cell_volume   512.64183576
loop_
 _symmetry_equiv_pos_site_id
 _symmetry_equiv_pos_as_xyz
  1  'x, y, z'
loop_
 _atom_type_symbol
  Pd
  Ta
loop_
 _atom_site_type_symbol
 _atom_site_label
 _atom_site_symmetry_multiplicity
 _atom_site_fract_x
 _atom_site_fract_y
 _atom_site_fract_z
 _atom_site_occupancy
  Pd  Pd0  1  0.39860276  0.60139724  0.00000000  1
  Pd  Pd1  1  0.60139724  0.39860276  0.00000000  1
  Pd  Pd2  1  0.89860276  0.89860276  0.50000000  1
  Pd  Pd3  1  0.10139724  0.10139724  0.50000000  1
  Pd  Pd4  1  0.06901326  0.26124389  0.00000000  1
  Pd  Pd5  1  0.93098674  0.73875611  0.00000000  1
  Pd  Pd6  1  0.23875611  0.56901326  0.50000000  1
  Pd  Pd7  1  0.76124389  0.43098674  0.50000000  1
  Pd  Pd8  1  0.43098674  0.76124389  0.50000000  1
  Pd  Pd9  1  0.56901326  0.23875611  0.50000000  1
  Pd  Pd10  1  0.26124389  0.06901326  0.00000000  1
  Pd  Pd11  1  0.73875611  0.93098674  0.00000000  1
  Ta  Ta0  1  0.00000000  0.00000000  0.00000000  1
  Ta  Ta1  1  0.50000000  0.50000000  0.50000000  1
  Ta  Ta2  1  0.13427944  0.53880231  0.00000000  1
  Ta  Ta3  1  0.86572056  0.46119769  0.00000000  1
  Ta  Ta4  1  0.96119769  0.63427944  0.50000000  1
  Ta  Ta5  1  0.03880231  0.36572056  0.50000000  1
  Ta  Ta6  1  0.36572056  0.03880231  0.50000000  1
  Ta  Ta7  1  0.63427944  0.96119769  0.50000000  1
  Ta  Ta8  1  0.53880231  0.13427944  0.00000000  1
  Ta  Ta9  1  0.46119769  0.86572056  0.00000000  1
  Ta  Ta10  1  0.31574954  0.31574954  0.24908669  1
  Ta  Ta11  1  0.68425046  0.68425046  0.24908669  1
  Ta  Ta12  1  0.18425046  0.81574954  0.74908669  1
  Ta  Ta13  1  0.81574954  0.18425046  0.74908669  1
  Ta  Ta14  1  0.18425046  0.81574954  0.25091331  1
  Ta  Ta15  1  0.81574954  0.18425046  0.25091331  1
  Ta  Ta16  1  0.31574954  0.31574954  0.75091331  1
  Ta  Ta17  1  0.68425046  0.68425046  0.75091331  1
