# generated using pymatgen
data_224_K2As6
_symmetry_space_group_name_H-M   'I4/mmm'
_cell_length_a   13.88819566
_cell_length_b   13.88819566
_cell_length_c   13.88819566
_cell_angle_alpha   163.55595419
_cell_angle_beta   163.55595419
_cell_angle_gamma   23.33663440
_chemical_formula_structural   K2As6
_chemical_formula_sum   'As6 K2'
_cell_volume   214.61378571
loop_
 _symmetry_equiv_pos_site_id
 _symmetry_equiv_pos_as_xyz
  1  'x, y, z'
loop_
 _atom_type_symbol
  As
  K
loop_
 _atom_site_type_symbol
 _atom_site_label
 _atom_site_symmetry_multiplicity
 _atom_site_fract_x
 _atom_site_fract_y
 _atom_site_fract_z
 _atom_site_occupancy
  As  As0  1  0.50000000  0.00000000  0.50000000  1
  As  As1  1  0.00000000  0.50000000  0.50000000  1
  As  As2  1  0.25000000  0.75000000  0.50000000  1
  As  As3  1  0.75000000  0.25000000  0.50000000  1
  As  As4  1  0.93009532  0.93009532  0.00000000  1
  As  As5  1  0.06990468  0.06990468  0.00000000  1
  K  K0  1  0.64401759  0.64401759  0.00000000  1
  K  K1  1  0.35598241  0.35598241  0.00000000  1
