# generated using pymatgen
data_2250_SnP4
_symmetry_space_group_name_H-M   'Im -3 m'
_cell_length_a   5.26194216
_cell_length_b   5.26194216
_cell_length_c   5.26194216
_cell_angle_alpha   109.47122063
_cell_angle_beta   109.47122063
_cell_angle_gamma   109.47122063
_chemical_formula_structural   SnP4
_chemical_formula_sum   'P4 Sn1'
_cell_volume   112.15440043
loop_
 _symmetry_equiv_pos_site_id
 _symmetry_equiv_pos_as_xyz
  1  'x, y, z'
loop_
 _atom_type_symbol
  P
  Sn
loop_
 _atom_site_type_symbol
 _atom_site_label
 _atom_site_symmetry_multiplicity
 _atom_site_fract_x
 _atom_site_fract_y
 _atom_site_fract_z
 _atom_site_occupancy
  P  P0  1  0.00000000  0.50000000  0.00000000  1
  P  P1  1  0.50000000  0.50000000  0.50000000  1
  P  P2  1  0.00000000  0.00000000  0.50000000  1
  P  P3  1  0.50000000  0.00000000  0.00000000  1
  Sn  Sn0  1  0.00000000  0.00000000  0.00000000  1
