# generated using pymatgen
data_2286_Fe8Sb4
_symmetry_space_group_name_H-M   'Pnma'
_cell_length_a   4.08130068
_cell_length_b   5.25378346
_cell_length_c   7.59340059
_cell_angle_alpha   90.00000000
_cell_angle_beta   90.00000000
_cell_angle_gamma   90.00000000
_chemical_formula_structural   Fe8Sb4
_chemical_formula_sum   'Fe8 Sb4'
_cell_volume   162.81974573
loop_
 _symmetry_equiv_pos_site_id
 _symmetry_equiv_pos_as_xyz
  1  'x, y, z'
loop_
 _atom_type_symbol
  Fe
  Sb
loop_
 _atom_site_type_symbol
 _atom_site_label
 _atom_site_symmetry_multiplicity
 _atom_site_fract_x
 _atom_site_fract_y
 _atom_site_fract_z
 _atom_site_occupancy
  Fe  Fe0  1  0.25000000  0.03880601  0.77122637  1
  Fe  Fe1  1  0.75000000  0.46119399  0.27122637  1
  Fe  Fe2  1  0.25000000  0.53880601  0.72877363  1
  Fe  Fe3  1  0.75000000  0.96119399  0.22877363  1
  Fe  Fe4  1  0.25000000  0.17617563  0.44100483  1
  Fe  Fe5  1  0.75000000  0.32382437  0.94100483  1
  Fe  Fe6  1  0.25000000  0.67617563  0.05899517  1
  Fe  Fe7  1  0.75000000  0.82382437  0.55899517  1
  Sb  Sb0  1  0.25000000  0.69818764  0.39347609  1
  Sb  Sb1  1  0.75000000  0.80181236  0.89347609  1
  Sb  Sb2  1  0.25000000  0.19818764  0.10652391  1
  Sb  Sb3  1  0.75000000  0.30181236  0.60652391  1
