# generated using pymatgen
data_228_Ge3P
_symmetry_space_group_name_H-M   'Pmmm'
_cell_length_a   2.97952461
_cell_length_b   4.14177987
_cell_length_c   5.92542036
_cell_angle_alpha   90.00000000
_cell_angle_beta   90.00000000
_cell_angle_gamma   90.00000000
_chemical_formula_structural   Ge3P
_chemical_formula_sum   'Ge3 P1'
_cell_volume   73.12285765
loop_
 _symmetry_equiv_pos_site_id
 _symmetry_equiv_pos_as_xyz
  1  'x, y, z'
loop_
 _atom_type_symbol
  Ge
  P
loop_
 _atom_site_type_symbol
 _atom_site_label
 _atom_site_symmetry_multiplicity
 _atom_site_fract_x
 _atom_site_fract_y
 _atom_site_fract_z
 _atom_site_occupancy
  Ge  Ge0  1  0.50000000  0.50000000  0.76381203  1
  Ge  Ge1  1  0.00000000  0.00000000  0.50000000  1
  Ge  Ge2  1  0.50000000  0.50000000  0.23618797  1
  P  P0  1  0.00000000  0.00000000  0.00000000  1
