# generated using pymatgen
data_2294_Ba4Cu2
_symmetry_space_group_name_H-M   'Pnnm'
_cell_length_a   4.72806487
_cell_length_b   7.57757054
_cell_length_c   7.94967191
_cell_angle_alpha   90.00000000
_cell_angle_beta   90.00000000
_cell_angle_gamma   90.00000000
_chemical_formula_structural   Ba4Cu2
_chemical_formula_sum   'Ba4 Cu2'
_cell_volume   284.81484375
loop_
 _symmetry_equiv_pos_site_id
 _symmetry_equiv_pos_as_xyz
  1  'x, y, z'
loop_
 _atom_type_symbol
  Ba
  Cu
loop_
 _atom_site_type_symbol
 _atom_site_label
 _atom_site_symmetry_multiplicity
 _atom_site_fract_x
 _atom_site_fract_y
 _atom_site_fract_z
 _atom_site_occupancy
  Ba  Ba0  1  0.00000000  0.25720692  0.66280424  1
  Ba  Ba1  1  0.00000000  0.74279308  0.33719576  1
  Ba  Ba2  1  0.50000000  0.75720692  0.83719576  1
  Ba  Ba3  1  0.50000000  0.24279308  0.16280424  1
  Cu  Cu0  1  0.00000000  0.00000000  0.00000000  1
  Cu  Cu1  1  0.50000000  0.50000000  0.50000000  1
