# generated using pymatgen
data_2295_Ag2Al4
_symmetry_space_group_name_H-M   'I4_1/amd'
_cell_length_a   9.64259004
_cell_length_b   9.64259004
_cell_length_c   9.64259004
_cell_angle_alpha   159.45589858
_cell_angle_beta   159.45589858
_cell_angle_gamma   29.21378173
_chemical_formula_structural   Ag2Al4
_chemical_formula_sum   'Ag2 Al4'
_cell_volume   110.35281284
loop_
 _symmetry_equiv_pos_site_id
 _symmetry_equiv_pos_as_xyz
  1  'x, y, z'
loop_
 _atom_type_symbol
  Ag
  Al
loop_
 _atom_site_type_symbol
 _atom_site_label
 _atom_site_symmetry_multiplicity
 _atom_site_fract_x
 _atom_site_fract_y
 _atom_site_fract_z
 _atom_site_occupancy
  Ag  Ag0  1  0.00000000  0.00000000  0.00000000  1
  Ag  Ag1  1  0.25000000  0.75000000  0.50000000  1
  Al  Al0  1  0.57236393  0.57236393  0.00000000  1
  Al  Al1  1  0.67763607  0.17763607  0.50000000  1
  Al  Al2  1  0.42763607  0.42763607  0.00000000  1
  Al  Al3  1  0.82236393  0.32236393  0.50000000  1
