# generated using pymatgen
data_2304_In2Br2
_symmetry_space_group_name_H-M   'Cmcm'
_cell_length_a   4.50461100
_cell_length_b   4.67304300
_cell_length_c   6.60191602
_cell_angle_alpha   90.00000000
_cell_angle_beta   70.05247059
_cell_angle_gamma   90.00000000
_chemical_formula_structural   In2Br2
_chemical_formula_sum   'Br2 In2'
_cell_volume   130.63436384
loop_
 _symmetry_equiv_pos_site_id
 _symmetry_equiv_pos_as_xyz
  1  'x, y, z'
loop_
 _atom_type_symbol
  Br
  In
loop_
 _atom_site_type_symbol
 _atom_site_label
 _atom_site_symmetry_multiplicity
 _atom_site_fract_x
 _atom_site_fract_y
 _atom_site_fract_z
 _atom_site_occupancy
  Br  Br0  1  0.85128007  0.24999982  0.29743933  1
  Br  Br1  1  0.14872040  0.74999946  0.70256115  1
  In  In0  1  0.39419575  0.74999946  0.21161046  1
  In  In1  1  0.60580472  0.24999982  0.78839003  1
