# generated using pymatgen
data_2306_CrSn4
_symmetry_space_group_name_H-M   'I4/m'
_cell_length_a   5.43868844
_cell_length_b   5.43868844
_cell_length_c   5.43868844
_cell_angle_alpha   101.66257222
_cell_angle_beta   101.66257222
_cell_angle_gamma   126.56289393
_chemical_formula_structural   CrSn4
_chemical_formula_sum   'Cr1 Sn4'
_cell_volume   115.41689336
loop_
 _symmetry_equiv_pos_site_id
 _symmetry_equiv_pos_as_xyz
  1  'x, y, z'
loop_
 _atom_type_symbol
  Cr
  Sn
loop_
 _atom_site_type_symbol
 _atom_site_label
 _atom_site_symmetry_multiplicity
 _atom_site_fract_x
 _atom_site_fract_y
 _atom_site_fract_z
 _atom_site_occupancy
  Cr  Cr0  1  0.00000000  0.00000000  0.00000000  1
  Sn  Sn0  1  0.80372966  0.37140387  0.17513354  1
  Sn  Sn1  1  0.37140387  0.19627034  0.56767421  1
  Sn  Sn2  1  0.19627034  0.62859613  0.82486646  1
  Sn  Sn3  1  0.62859613  0.80372966  0.43232579  1
