# generated using pymatgen
data_2307_Cr2W
_symmetry_space_group_name_H-M   'I4/mmm'
_cell_length_a   4.92825879
_cell_length_b   4.92825879
_cell_length_c   4.92825879
_cell_angle_alpha   144.78790584
_cell_angle_beta   144.68654033
_cell_angle_gamma   50.72634230
_chemical_formula_structural   Cr2W
_chemical_formula_sum   'Cr2 W1'
_cell_volume   39.69142627
loop_
 _symmetry_equiv_pos_site_id
 _symmetry_equiv_pos_as_xyz
  1  'x, y, z'
loop_
 _atom_type_symbol
  Cr
  W
loop_
 _atom_site_type_symbol
 _atom_site_label
 _atom_site_symmetry_multiplicity
 _atom_site_fract_x
 _atom_site_fract_y
 _atom_site_fract_z
 _atom_site_occupancy
  Cr  Cr0  1  0.00472053  0.00472053  1.00000000  1
  Cr  Cr1  1  0.66194614  0.66194614  0.00000000  1
  W  W0  1  0.33333333  0.33333333  1.00000000  1
