# generated using pymatgen
data_2308_K2P2
_symmetry_space_group_name_H-M   'I4_1/amd'
_cell_length_a   5.57634586
_cell_length_b   5.57634586
_cell_length_c   5.57634586
_cell_angle_alpha   128.36514760
_cell_angle_beta   128.36514760
_cell_angle_gamma   76.03424571
_chemical_formula_structural   K2P2
_chemical_formula_sum   'K2 P2'
_cell_volume   103.63964375
loop_
 _symmetry_equiv_pos_site_id
 _symmetry_equiv_pos_as_xyz
  1  'x, y, z'
loop_
 _atom_type_symbol
  K
  P
loop_
 _atom_site_type_symbol
 _atom_site_label
 _atom_site_symmetry_multiplicity
 _atom_site_fract_x
 _atom_site_fract_y
 _atom_site_fract_z
 _atom_site_occupancy
  K  K0  1  0.00000000  0.00000000  0.00000000  1
  K  K1  1  0.25000000  0.75000000  0.50000000  1
  P  P0  1  0.50000000  0.50000000  0.00000000  1
  P  P1  1  0.75000000  0.25000000  0.50000000  1
