# generated using pymatgen
data_2317_KGe2
_symmetry_space_group_name_H-M   'Immm'
_cell_length_a   6.73280266
_cell_length_b   6.73280266
_cell_length_c   6.73280266
_cell_angle_alpha   152.64094882
_cell_angle_beta   147.39119146
_cell_angle_gamma   43.07053034
_chemical_formula_structural   KGe2
_chemical_formula_sum   'Ge2 K1'
_cell_volume   75.39451276
loop_
 _symmetry_equiv_pos_site_id
 _symmetry_equiv_pos_as_xyz
  1  'x, y, z'
loop_
 _atom_type_symbol
  Ge
  K
loop_
 _atom_site_type_symbol
 _atom_site_label
 _atom_site_symmetry_multiplicity
 _atom_site_fract_x
 _atom_site_fract_y
 _atom_site_fract_z
 _atom_site_occupancy
  Ge  Ge0  1  0.30095280  0.30095280  0.00000000  1
  Ge  Ge1  1  0.69904720  0.69904720  1.00000000  1
  K  K0  1  0.00000000  0.00000000  0.00000000  1
