# generated using pymatgen
data_2322_Ag2Na4
_symmetry_space_group_name_H-M   'I4/mcm'
_cell_length_a   6.01459243
_cell_length_b   6.01459243
_cell_length_c   6.01459243
_cell_angle_alpha   103.07894365
_cell_angle_beta   103.07894365
_cell_angle_gamma   123.18973443
_chemical_formula_structural   Ag2Na4
_chemical_formula_sum   'Ag2 Na4'
_cell_volume   160.16249748
loop_
 _symmetry_equiv_pos_site_id
 _symmetry_equiv_pos_as_xyz
  1  'x, y, z'
loop_
 _atom_type_symbol
  Ag
  Na
loop_
 _atom_site_type_symbol
 _atom_site_label
 _atom_site_symmetry_multiplicity
 _atom_site_fract_x
 _atom_site_fract_y
 _atom_site_fract_z
 _atom_site_occupancy
  Ag  Ag0  1  0.75000000  0.75000000  0.00000000  1
  Ag  Ag1  1  0.25000000  0.25000000  0.00000000  1
  Na  Na0  1  0.33372437  0.16627563  0.50000000  1
  Na  Na1  1  0.66627563  0.83372437  0.50000000  1
  Na  Na2  1  0.16627563  0.66627563  0.83255125  1
  Na  Na3  1  0.83372437  0.33372437  0.16744875  1
