# generated using pymatgen
data_2323_Fe5Sb
_symmetry_space_group_name_H-M   'Cmmm'
_cell_length_a   5.77431349
_cell_length_b   5.77431349
_cell_length_c   3.60222356
_cell_angle_alpha   90.00000000
_cell_angle_beta   90.00000000
_cell_angle_gamma   143.66494208
_chemical_formula_structural   Fe5Sb
_chemical_formula_sum   'Fe5 Sb1'
_cell_volume   71.16464292
loop_
 _symmetry_equiv_pos_site_id
 _symmetry_equiv_pos_as_xyz
  1  'x, y, z'
loop_
 _atom_type_symbol
  Fe
  Sb
loop_
 _atom_site_type_symbol
 _atom_site_label
 _atom_site_symmetry_multiplicity
 _atom_site_fract_x
 _atom_site_fract_y
 _atom_site_fract_z
 _atom_site_occupancy
  Fe  Fe0  1  0.79067424  0.20932576  0.50000000  1
  Fe  Fe1  1  0.65402995  0.34597005  0.00000000  1
  Fe  Fe2  1  0.47216028  0.52783972  0.50000000  1
  Fe  Fe3  1  0.29046698  0.70953302  0.00000000  1
  Fe  Fe4  1  0.15375341  0.84624659  0.50000000  1
  Sb  Sb0  1  0.97224848  0.02775152  0.00000000  1
