# generated using pymatgen
data_2325_SnP
_symmetry_space_group_name_H-M   'Fm -3 m'
_cell_length_a   5.58821902
_cell_length_b   3.95664081
_cell_length_c   3.93463194
_cell_angle_alpha   90.12181385
_cell_angle_beta   90.00000000
_cell_angle_gamma   90.00000000
_chemical_formula_structural   SnP
_chemical_formula_sum   'P2 Sn2'
_cell_volume   86.99677972
loop_
 _symmetry_equiv_pos_site_id
 _symmetry_equiv_pos_as_xyz
  1  'x, y, z'
loop_
 _atom_type_symbol
  P
  Sn
loop_
 _atom_site_type_symbol
 _atom_site_label
 _atom_site_symmetry_multiplicity
 _atom_site_fract_x
 _atom_site_fract_y
 _atom_site_fract_z
 _atom_site_occupancy
  P  P0  1  0.00000000  0.12638763  0.12402187  1
  P  P1  1  0.50000000  0.62361237  0.62597813  1
  Sn  Sn0  1  0.00000000  0.62653060  0.62353643  1
  Sn  Sn1  1  0.50000000  0.12346940  0.12646357  1
