# generated using pymatgen
data_2330_Ag4Al4
_symmetry_space_group_name_H-M   'I4/mmm'
_cell_length_a   4.05389114
_cell_length_b   8.74059098
_cell_length_c   4.05389114
_cell_angle_alpha   103.40895407
_cell_angle_beta   89.99999993
_cell_angle_gamma   103.40895418
_chemical_formula_structural   Ag4Al4
_chemical_formula_sum   'Ag4 Al4'
_cell_volume   135.69869039
loop_
 _symmetry_equiv_pos_site_id
 _symmetry_equiv_pos_as_xyz
  1  'x, y, z'
loop_
 _atom_type_symbol
  Ag
  Al
loop_
 _atom_site_type_symbol
 _atom_site_label
 _atom_site_symmetry_multiplicity
 _atom_site_fract_x
 _atom_site_fract_y
 _atom_site_fract_z
 _atom_site_occupancy
  Ag  Ag0  1  0.00000000  0.00000000  0.00000000  1
  Ag  Ag1  1  0.63275700  0.26551400  0.13275700  1
  Ag  Ag2  1  0.86724300  0.73448600  0.36724300  1
  Ag  Ag3  1  0.50000000  0.00000000  0.50000000  1
  Al  Al0  1  0.25000000  0.50000000  0.25000000  1
  Al  Al1  1  0.12406347  0.24812695  0.62406347  1
  Al  Al2  1  0.75000000  0.50000000  0.75000000  1
  Al  Al3  1  0.37593653  0.75187305  0.87593653  1
