# generated using pymatgen
data_2331_Ba2Cu
_symmetry_space_group_name_H-M   'I4/mmm'
_cell_length_a   7.94605872
_cell_length_b   7.94605872
_cell_length_c   8.04386014
_cell_angle_alpha   75.15106565
_cell_angle_beta   75.15106565
_cell_angle_gamma   29.32272803
_chemical_formula_structural   Ba2Cu
_chemical_formula_sum   'Ba4 Cu2'
_cell_volume   239.84186732
loop_
 _symmetry_equiv_pos_site_id
 _symmetry_equiv_pos_as_xyz
  1  'x, y, z'
loop_
 _atom_type_symbol
  Ba
  Cu
loop_
 _atom_site_type_symbol
 _atom_site_label
 _atom_site_symmetry_multiplicity
 _atom_site_fract_x
 _atom_site_fract_y
 _atom_site_fract_z
 _atom_site_occupancy
  Ba  Ba0  1  0.87453768  0.87453768  0.06246519  1
  Ba  Ba1  1  0.12546232  0.12546232  0.93753481  1
  Ba  Ba2  1  0.87412945  0.87412945  0.56277594  1
  Ba  Ba3  1  0.12587055  0.12587055  0.43722406  1
  Cu  Cu0  1  0.50012445  0.50012445  0.74927766  1
  Cu  Cu1  1  0.49987555  0.49987555  0.25072234  1
