# generated using pymatgen
data_2339_Mn5Sb4
_symmetry_space_group_name_H-M   'I4/mmm'
_cell_length_a   6.75262186
_cell_length_b   6.75262186
_cell_length_c   6.75262186
_cell_angle_alpha   94.91314120
_cell_angle_beta   94.91314120
_cell_angle_gamma   145.96636090
_chemical_formula_structural   Mn5Sb4
_chemical_formula_sum   'Mn5 Sb4'
_cell_volume   164.78362193
loop_
 _symmetry_equiv_pos_site_id
 _symmetry_equiv_pos_as_xyz
  1  'x, y, z'
loop_
 _atom_type_symbol
  Mn
  Sb
loop_
 _atom_site_type_symbol
 _atom_site_label
 _atom_site_symmetry_multiplicity
 _atom_site_fract_x
 _atom_site_fract_y
 _atom_site_fract_z
 _atom_site_occupancy
  Mn  Mn0  1  0.00000000  0.00000000  0.00000000  1
  Mn  Mn1  1  0.65617814  0.34382186  0.00000000  1
  Mn  Mn2  1  0.34382186  0.65617814  0.00000000  1
  Mn  Mn3  1  0.34382186  0.34382186  0.68764372  1
  Mn  Mn4  1  0.65617814  0.65617814  0.31235628  1
  Sb  Sb0  1  0.71284604  1.00000000  0.71284604  1
  Sb  Sb1  1  0.28715396  1.00000000  0.28715396  1
  Sb  Sb2  1  0.00000000  0.28715396  0.28715396  1
  Sb  Sb3  1  0.00000000  0.71284604  0.71284604  1
