# generated using pymatgen
data_233_Ag6Al6
_symmetry_space_group_name_H-M   'Cmm2'
_cell_length_a   5.00592667
_cell_length_b   8.49844208
_cell_length_c   5.00592668
_cell_angle_alpha   90.00000000
_cell_angle_beta   106.65287787
_cell_angle_gamma   90.00000000
_chemical_formula_structural   Ag6Al6
_chemical_formula_sum   'Ag6 Al6'
_cell_volume   204.03295417
loop_
 _symmetry_equiv_pos_site_id
 _symmetry_equiv_pos_as_xyz
  1  'x, y, z'
loop_
 _atom_type_symbol
  Ag
  Al
loop_
 _atom_site_type_symbol
 _atom_site_label
 _atom_site_symmetry_multiplicity
 _atom_site_fract_x
 _atom_site_fract_y
 _atom_site_fract_z
 _atom_site_occupancy
  Ag  Ag0  1  0.00000000  0.99559471  0.00000000  1
  Ag  Ag1  1  0.50000000  0.17380965  1.00000000  1
  Ag  Ag2  1  0.00000000  0.34207702  0.00000000  1
  Ag  Ag3  1  0.00000000  0.66868916  0.00000000  1
  Ag  Ag4  1  0.50000000  0.98576865  0.50000000  1
  Ag  Ag5  1  0.00000000  0.17380965  0.50000000  1
  Al  Al0  1  0.50000000  0.50204549  1.00000000  1
  Al  Al1  1  0.50000000  0.83676822  1.00000000  1
  Al  Al2  1  0.50000000  0.32521281  0.50000000  1
  Al  Al3  1  0.00000000  0.50204549  0.50000000  1
  Al  Al4  1  0.50000000  0.65741094  0.50000000  1
  Al  Al5  1  0.00000000  0.83676822  0.50000000  1
