# generated using pymatgen
data_2340_Ir4Ta4
_symmetry_space_group_name_H-M   'Pnma'
_cell_length_a   5.28217562
_cell_length_b   4.50074814
_cell_length_c   5.54492451
_cell_angle_alpha   90.00000000
_cell_angle_beta   90.00000000
_cell_angle_gamma   90.00000000
_chemical_formula_structural   Ir4Ta4
_chemical_formula_sum   'Ir4 Ta4'
_cell_volume   131.82360525
loop_
 _symmetry_equiv_pos_site_id
 _symmetry_equiv_pos_as_xyz
  1  'x, y, z'
loop_
 _atom_type_symbol
  Ir
  Ta
loop_
 _atom_site_type_symbol
 _atom_site_label
 _atom_site_symmetry_multiplicity
 _atom_site_fract_x
 _atom_site_fract_y
 _atom_site_fract_z
 _atom_site_occupancy
  Ir  Ir0  1  0.07602477  0.25000000  0.13871008  1
  Ir  Ir1  1  0.42397523  0.75000000  0.63871008  1
  Ir  Ir2  1  0.57602477  0.25000000  0.36128992  1
  Ir  Ir3  1  0.92397523  0.75000000  0.86128992  1
  Ta  Ta0  1  0.14353404  0.25000000  0.61737625  1
  Ta  Ta1  1  0.35646596  0.75000000  0.11737625  1
  Ta  Ta2  1  0.64353404  0.25000000  0.88262375  1
  Ta  Ta3  1  0.85646596  0.75000000  0.38262375  1
