# generated using pymatgen
data_2344_InGe
_symmetry_space_group_name_H-M   'P-6m2'
_cell_length_a   3.23629420
_cell_length_b   3.23620770
_cell_length_c   5.17664085
_cell_angle_alpha   90.00000000
_cell_angle_beta   90.00000000
_cell_angle_gamma   120.00089417
_chemical_formula_structural   InGe
_chemical_formula_sum   'Ge1 In1'
_cell_volume   46.95254481
loop_
 _symmetry_equiv_pos_site_id
 _symmetry_equiv_pos_as_xyz
  1  'x, y, z'
loop_
 _atom_type_symbol
  Ge
  In
loop_
 _atom_site_type_symbol
 _atom_site_label
 _atom_site_symmetry_multiplicity
 _atom_site_fract_x
 _atom_site_fract_y
 _atom_site_fract_z
 _atom_site_occupancy
  Ge  Ge0  1  0.66666695  0.33333290  0.75000000  1
  In  In0  1  0.33333305  0.66666710  0.25000000  1
