# generated using pymatgen
data_2348_Nb24As8
_symmetry_space_group_name_H-M   'P4_2/n'
_cell_length_a   10.35819137
_cell_length_b   10.35819137
_cell_length_c   5.24515733
_cell_angle_alpha   90.00000000
_cell_angle_beta   90.00000000
_cell_angle_gamma   90.00000000
_chemical_formula_structural   Nb24As8
_chemical_formula_sum   'As8 Nb24'
_cell_volume   562.76409403
loop_
 _symmetry_equiv_pos_site_id
 _symmetry_equiv_pos_as_xyz
  1  'x, y, z'
loop_
 _atom_type_symbol
  As
  Nb
loop_
 _atom_site_type_symbol
 _atom_site_label
 _atom_site_symmetry_multiplicity
 _atom_site_fract_x
 _atom_site_fract_y
 _atom_site_fract_z
 _atom_site_occupancy
  As  As0  1  0.45635399  0.22923111  0.01970104  1
  As  As1  1  0.04364601  0.27076889  0.01970104  1
  As  As2  1  0.22923111  0.04364601  0.48029896  1
  As  As3  1  0.27076889  0.45635399  0.48029896  1
  As  As4  1  0.72923111  0.54364601  0.51970104  1
  As  As5  1  0.77076889  0.95635399  0.51970104  1
  As  As6  1  0.95635399  0.72923111  0.98029896  1
  As  As7  1  0.54364601  0.77076889  0.98029896  1
  Nb  Nb0  1  0.73881382  0.60064153  0.01803661  1
  Nb  Nb1  1  0.76118618  0.89935847  0.01803661  1
  Nb  Nb2  1  0.34404867  0.66537771  0.22773623  1
  Nb  Nb3  1  0.15595133  0.83462229  0.22773623  1
  Nb  Nb4  1  0.05570689  0.53649468  0.24113106  1
  Nb  Nb5  1  0.44429311  0.96350532  0.24113106  1
  Nb  Nb6  1  0.96350532  0.05570689  0.25886894  1
  Nb  Nb7  1  0.53649468  0.44429311  0.25886894  1
  Nb  Nb8  1  0.66537771  0.15595133  0.27226377  1
  Nb  Nb9  1  0.83462229  0.34404867  0.27226377  1
  Nb  Nb10  1  0.89935847  0.73881382  0.48196339  1
  Nb  Nb11  1  0.60064153  0.76118618  0.48196339  1
  Nb  Nb12  1  0.39935847  0.23881382  0.51803661  1
  Nb  Nb13  1  0.10064153  0.26118618  0.51803661  1
  Nb  Nb14  1  0.16537771  0.65595133  0.72773623  1
  Nb  Nb15  1  0.33462229  0.84404867  0.72773623  1
  Nb  Nb16  1  0.46350532  0.55570689  0.74113106  1
  Nb  Nb17  1  0.03649468  0.94429311  0.74113106  1
  Nb  Nb18  1  0.55570689  0.03649468  0.75886894  1
  Nb  Nb19  1  0.94429311  0.46350532  0.75886894  1
  Nb  Nb20  1  0.84404867  0.16537771  0.77226377  1
  Nb  Nb21  1  0.65595133  0.33462229  0.77226377  1
  Nb  Nb22  1  0.23881382  0.10064153  0.98196339  1
  Nb  Nb23  1  0.26118618  0.39935847  0.98196339  1
