# generated using pymatgen
data_2350_Ga16P8
_symmetry_space_group_name_H-M   'Fd -3 m'
_cell_length_a   8.51640092
_cell_length_b   8.51640092
_cell_length_c   8.51640092
_cell_angle_alpha   60.00000000
_cell_angle_beta   60.00000000
_cell_angle_gamma   60.00000000
_chemical_formula_structural   Ga16P8
_chemical_formula_sum   'Ga16 P8'
_cell_volume   436.77049842
loop_
 _symmetry_equiv_pos_site_id
 _symmetry_equiv_pos_as_xyz
  1  'x, y, z'
loop_
 _atom_type_symbol
  Ga
  P
loop_
 _atom_site_type_symbol
 _atom_site_label
 _atom_site_symmetry_multiplicity
 _atom_site_fract_x
 _atom_site_fract_y
 _atom_site_fract_z
 _atom_site_occupancy
  Ga  Ga0  1  0.00000000  0.50000000  0.00000000  1
  Ga  Ga1  1  0.50000000  0.00000000  0.00000000  1
  Ga  Ga2  1  0.50000000  0.50000000  0.00000000  1
  Ga  Ga3  1  0.50000000  0.50000000  0.50000000  1
  Ga  Ga4  1  0.94241859  0.94241859  0.80758141  1
  Ga  Ga5  1  0.94241859  0.30758141  0.80758141  1
  Ga  Ga6  1  0.30758141  0.94241859  0.80758141  1
  Ga  Ga7  1  0.94241859  0.30758141  0.44241859  1
  Ga  Ga8  1  0.30758141  0.94241859  0.44241859  1
  Ga  Ga9  1  0.30758141  0.30758141  0.44241859  1
  Ga  Ga10  1  0.05758141  0.05758141  0.19241859  1
  Ga  Ga11  1  0.05758141  0.69241859  0.19241859  1
  Ga  Ga12  1  0.69241859  0.05758141  0.19241859  1
  Ga  Ga13  1  0.05758141  0.69241859  0.55758141  1
  Ga  Ga14  1  0.69241859  0.05758141  0.55758141  1
  Ga  Ga15  1  0.69241859  0.69241859  0.55758141  1
  P  P0  1  0.72432227  0.72432227  0.82703319  1
  P  P1  1  0.72432227  0.72432227  0.22432227  1
  P  P2  1  0.72432227  0.32703319  0.22432227  1
  P  P3  1  0.32703319  0.72432227  0.22432227  1
  P  P4  1  0.27567773  0.27567773  0.17296681  1
  P  P5  1  0.27567773  0.27567773  0.77567773  1
  P  P6  1  0.27567773  0.67296681  0.77567773  1
  P  P7  1  0.67296681  0.27567773  0.77567773  1
