# generated using pymatgen
data_2352_Au2Mn2
_symmetry_space_group_name_H-M   'Cmcm'
_cell_length_a   2.88588290
_cell_length_b   5.37379183
_cell_length_c   4.50801752
_cell_angle_alpha   90.00000000
_cell_angle_beta   90.00000000
_cell_angle_gamma   74.42410526
_chemical_formula_structural   Au2Mn2
_chemical_formula_sum   'Au2 Mn2'
_cell_volume   67.34350368
loop_
 _symmetry_equiv_pos_site_id
 _symmetry_equiv_pos_as_xyz
  1  'x, y, z'
loop_
 _atom_type_symbol
  Au
  Mn
loop_
 _atom_site_type_symbol
 _atom_site_label
 _atom_site_symmetry_multiplicity
 _atom_site_fract_x
 _atom_site_fract_y
 _atom_site_fract_z
 _atom_site_occupancy
  Au  Au0  1  0.84388709  0.31222582  0.25000000  1
  Au  Au1  1  0.15611291  0.68777418  0.75000000  1
  Mn  Mn0  1  0.58116092  0.83767816  0.25000000  1
  Mn  Mn1  1  0.41883908  0.16232184  0.75000000  1
