# generated using pymatgen
data_2353_Cr2Sn2
_symmetry_space_group_name_H-M   'P4/nmm'
_cell_length_a   4.63183837
_cell_length_b   4.63183837
_cell_length_c   5.44859974
_cell_angle_alpha   90.00000000
_cell_angle_beta   90.00000000
_cell_angle_gamma   90.00000000
_chemical_formula_structural   Cr2Sn2
_chemical_formula_sum   'Cr2 Sn2'
_cell_volume   116.89385936
loop_
 _symmetry_equiv_pos_site_id
 _symmetry_equiv_pos_as_xyz
  1  'x, y, z'
loop_
 _atom_type_symbol
  Cr
  Sn
loop_
 _atom_site_type_symbol
 _atom_site_label
 _atom_site_symmetry_multiplicity
 _atom_site_fract_x
 _atom_site_fract_y
 _atom_site_fract_z
 _atom_site_occupancy
  Cr  Cr0  1  0.25000000  0.25000000  0.27120880  1
  Cr  Cr1  1  0.75000000  0.75000000  0.72879120  1
  Sn  Sn0  1  0.25000000  0.75000000  0.00000000  1
  Sn  Sn1  1  0.75000000  0.25000000  0.00000000  1
