# generated using pymatgen
data_2358_As5Br4
_symmetry_space_group_name_H-M   'I4/mmm'
_cell_length_a   9.61706688
_cell_length_b   9.61706688
_cell_length_c   9.61706688
_cell_angle_alpha   91.97916410
_cell_angle_beta   91.97916410
_cell_angle_gamma   158.57991925
_chemical_formula_structural   As5Br4
_chemical_formula_sum   'As5 Br4'
_cell_volume   319.17609863
loop_
 _symmetry_equiv_pos_site_id
 _symmetry_equiv_pos_as_xyz
  1  'x, y, z'
loop_
 _atom_type_symbol
  As
  Br
loop_
 _atom_site_type_symbol
 _atom_site_label
 _atom_site_symmetry_multiplicity
 _atom_site_fract_x
 _atom_site_fract_y
 _atom_site_fract_z
 _atom_site_occupancy
  As  As0  1  0.00000000  0.00000000  0.00000000  1
  As  As1  1  0.70863952  0.29136048  0.00000000  1
  As  As2  1  0.29136048  0.70863952  0.00000000  1
  As  As3  1  0.29136048  0.29136048  0.58272097  1
  As  As4  1  0.70863952  0.70863952  0.41727903  1
  Br  Br0  1  0.80328503  0.00000000  0.80328503  1
  Br  Br1  1  0.19671497  1.00000000  0.19671497  1
  Br  Br2  1  1.00000000  0.19671497  0.19671497  1
  Br  Br3  1  1.00000000  0.80328503  0.80328503  1
