# generated using pymatgen
data_2359_Ba2V4
_symmetry_space_group_name_H-M   'I4/mcm'
_cell_length_a   6.08859542
_cell_length_b   6.08859542
_cell_length_c   6.08859542
_cell_angle_alpha   126.53644218
_cell_angle_beta   126.53644218
_cell_angle_gamma   79.00823556
_chemical_formula_structural   Ba2V4
_chemical_formula_sum   'Ba2 V4'
_cell_volume   140.94784583
loop_
 _symmetry_equiv_pos_site_id
 _symmetry_equiv_pos_as_xyz
  1  'x, y, z'
loop_
 _atom_type_symbol
  Ba
  V
loop_
 _atom_site_type_symbol
 _atom_site_label
 _atom_site_symmetry_multiplicity
 _atom_site_fract_x
 _atom_site_fract_y
 _atom_site_fract_z
 _atom_site_occupancy
  Ba  Ba0  1  0.75000000  0.75000000  0.00000000  1
  Ba  Ba1  1  0.25000000  0.25000000  0.00000000  1
  V  V0  1  0.38095784  0.11904216  0.50000000  1
  V  V1  1  0.61904216  0.88095784  0.50000000  1
  V  V2  1  0.11904216  0.61904216  0.73808432  1
  V  V3  1  0.88095784  0.38095784  0.26191568  1
