# generated using pymatgen
data_2361_K4Ge2
_symmetry_space_group_name_H-M   'Cmcm'
_cell_length_a   9.83212047
_cell_length_b   9.83212047
_cell_length_c   6.06721684
_cell_angle_alpha   90.00000000
_cell_angle_beta   90.00000000
_cell_angle_gamma   158.63903155
_chemical_formula_structural   K4Ge2
_chemical_formula_sum   'Ge2 K4'
_cell_volume   213.63600233
loop_
 _symmetry_equiv_pos_site_id
 _symmetry_equiv_pos_as_xyz
  1  'x, y, z'
loop_
 _atom_type_symbol
  Ge
  K
loop_
 _atom_site_type_symbol
 _atom_site_label
 _atom_site_symmetry_multiplicity
 _atom_site_fract_x
 _atom_site_fract_y
 _atom_site_fract_z
 _atom_site_occupancy
  Ge  Ge0  1  0.11866318  0.88133682  0.25000000  1
  Ge  Ge1  1  0.88133682  0.11866318  0.75000000  1
  K  K0  1  0.45296450  0.54703550  0.25000000  1
  K  K1  1  0.54703550  0.45296450  0.75000000  1
  K  K2  1  0.77679731  0.22320269  0.25000000  1
  K  K3  1  0.22320269  0.77679731  0.75000000  1
