# generated using pymatgen
data_2367_Fe4Na4
_symmetry_space_group_name_H-M   'P2_13'
_cell_length_a   5.12063035
_cell_length_b   5.12063035
_cell_length_c   5.12063035
_cell_angle_alpha   90.00000000
_cell_angle_beta   90.00000000
_cell_angle_gamma   90.00000000
_chemical_formula_structural   Fe4Na4
_chemical_formula_sum   'Fe4 Na4'
_cell_volume   134.26730684
loop_
 _symmetry_equiv_pos_site_id
 _symmetry_equiv_pos_as_xyz
  1  'x, y, z'
loop_
 _atom_type_symbol
  Fe
  Na
loop_
 _atom_site_type_symbol
 _atom_site_label
 _atom_site_symmetry_multiplicity
 _atom_site_fract_x
 _atom_site_fract_y
 _atom_site_fract_z
 _atom_site_occupancy
  Fe  Fe0  1  0.60625349  0.60625349  0.39374651  1
  Fe  Fe1  1  0.89374651  0.39374651  0.89374651  1
  Fe  Fe2  1  0.39374651  0.10625349  0.10625349  1
  Fe  Fe3  1  0.10625349  0.89374651  0.60625349  1
  Na  Na0  1  0.90392055  0.90392055  0.09607945  1
  Na  Na1  1  0.59607945  0.09607945  0.59607945  1
  Na  Na2  1  0.09607945  0.40392055  0.40392055  1
  Na  Na3  1  0.40392055  0.59607945  0.90392055  1
