# generated using pymatgen
data_2368_Ga5Br3
_symmetry_space_group_name_H-M   'Cmmm'
_cell_length_a   6.09809703
_cell_length_b   6.09809703
_cell_length_c   5.54127098
_cell_angle_alpha   90.00000000
_cell_angle_beta   90.00000000
_cell_angle_gamma   91.29524850
_chemical_formula_structural   Ga5Br3
_chemical_formula_sum   'Br3 Ga5'
_cell_volume   206.00941428
loop_
 _symmetry_equiv_pos_site_id
 _symmetry_equiv_pos_as_xyz
  1  'x, y, z'
loop_
 _atom_type_symbol
  Br
  Ga
loop_
 _atom_site_type_symbol
 _atom_site_label
 _atom_site_symmetry_multiplicity
 _atom_site_fract_x
 _atom_site_fract_y
 _atom_site_fract_z
 _atom_site_occupancy
  Br  Br0  1  0.50000000  0.50000000  0.00000000  1
  Br  Br1  1  0.78490590  0.21509410  0.50000000  1
  Br  Br2  1  0.21509410  0.78490590  0.50000000  1
  Ga  Ga0  1  0.00000000  0.00000000  0.00000000  1
  Ga  Ga1  1  0.00000000  0.50000000  0.00000000  1
  Ga  Ga2  1  0.50000000  0.00000000  0.00000000  1
  Ga  Ga3  1  0.26666417  0.26666417  0.50000000  1
  Ga  Ga4  1  0.73333583  0.73333583  0.50000000  1
