# generated using pymatgen
data_2369_RhTh
_symmetry_space_group_name_H-M   'P4/mmm'
_cell_length_a   3.50262657
_cell_length_b   4.95346300
_cell_length_c   3.67571700
_cell_angle_alpha   90.00000000
_cell_angle_beta   90.00000000
_cell_angle_gamma   45.00000000
_chemical_formula_structural   RhTh
_chemical_formula_sum   'Rh1 Th1'
_cell_volume   45.09514942
loop_
 _symmetry_equiv_pos_site_id
 _symmetry_equiv_pos_as_xyz
  1  'x, y, z'
loop_
 _atom_type_symbol
  Rh
  Th
loop_
 _atom_site_type_symbol
 _atom_site_label
 _atom_site_symmetry_multiplicity
 _atom_site_fract_x
 _atom_site_fract_y
 _atom_site_fract_z
 _atom_site_occupancy
  Rh  Rh0  1  0.00000000  0.00000000  0.00000000  1
  Th  Th0  1  0.00000000  0.49999971  0.50000035  1
