# generated using pymatgen
data_236_VW2
_symmetry_space_group_name_H-M   'Immm'
_cell_length_a   7.84213179
_cell_length_b   4.71177802
_cell_length_c   2.57379620
_cell_angle_alpha   90.00000000
_cell_angle_beta   90.00000000
_cell_angle_gamma   90.00000000
_chemical_formula_structural   VW2
_chemical_formula_sum   'V2 W4'
_cell_volume   95.10275844
loop_
 _symmetry_equiv_pos_site_id
 _symmetry_equiv_pos_as_xyz
  1  'x, y, z'
loop_
 _atom_type_symbol
  V
  W
loop_
 _atom_site_type_symbol
 _atom_site_label
 _atom_site_symmetry_multiplicity
 _atom_site_fract_x
 _atom_site_fract_y
 _atom_site_fract_z
 _atom_site_occupancy
  V  V0  1  0.00000000  0.00000000  0.00000000  1
  V  V1  1  0.50000000  0.50000000  0.50000000  1
  W  W0  1  0.17697659  0.50126457  0.00000000  1
  W  W1  1  0.32302341  0.00126457  0.50000000  1
  W  W2  1  0.67697659  0.99873543  0.50000000  1
  W  W3  1  0.82302341  0.49873543  0.00000000  1
