# generated using pymatgen
data_2370_Pd2W
_symmetry_space_group_name_H-M   'Immm'
_cell_length_a   4.80355274
_cell_length_b   4.80355274
_cell_length_c   4.80355274
_cell_angle_alpha   146.24073716
_cell_angle_beta   131.39577392
_cell_angle_gamma   60.48599298
_chemical_formula_structural   Pd2W
_chemical_formula_sum   'Pd2 W1'
_cell_volume   45.76884705
loop_
 _symmetry_equiv_pos_site_id
 _symmetry_equiv_pos_as_xyz
  1  'x, y, z'
loop_
 _atom_type_symbol
  Pd
  W
loop_
 _atom_site_type_symbol
 _atom_site_label
 _atom_site_symmetry_multiplicity
 _atom_site_fract_x
 _atom_site_fract_y
 _atom_site_fract_z
 _atom_site_occupancy
  Pd  Pd0  1  0.66484707  0.66484707  1.00000000  1
  Pd  Pd1  1  0.33515293  0.33515293  1.00000000  1
  W  W0  1  0.00000000  0.00000000  0.00000000  1
