# generated using pymatgen
data_2372_Cr3W
_symmetry_space_group_name_H-M   'P4/mmm'
_cell_length_a   4.16143545
_cell_length_b   4.16143545
_cell_length_c   2.95861458
_cell_angle_alpha   90.00000000
_cell_angle_beta   90.00000000
_cell_angle_gamma   90.23266878
_chemical_formula_structural   Cr3W
_chemical_formula_sum   'Cr3 W1'
_cell_volume   51.23551854
loop_
 _symmetry_equiv_pos_site_id
 _symmetry_equiv_pos_as_xyz
  1  'x, y, z'
loop_
 _atom_type_symbol
  Cr
  W
loop_
 _atom_site_type_symbol
 _atom_site_label
 _atom_site_symmetry_multiplicity
 _atom_site_fract_x
 _atom_site_fract_y
 _atom_site_fract_z
 _atom_site_occupancy
  Cr  Cr0  1  0.00000000  0.00000000  0.00000000  1
  Cr  Cr1  1  0.00000000  0.50000000  0.50000000  1
  Cr  Cr2  1  0.50000000  0.00000000  0.50000000  1
  W  W0  1  0.50000000  0.50000000  0.00000000  1
