# generated using pymatgen
data_2375_Ga13Mn13
_symmetry_space_group_name_H-M   'R -3 m'
_cell_length_a   7.78475281
_cell_length_b   7.78475300
_cell_length_c   7.78475300
_cell_angle_alpha   109.17805932
_cell_angle_beta   109.17805675
_cell_angle_gamma   109.17805675
_chemical_formula_structural   Ga13Mn13
_chemical_formula_sum   'Ga13 Mn13'
_cell_volume   367.06118667
loop_
 _symmetry_equiv_pos_site_id
 _symmetry_equiv_pos_as_xyz
  1  'x, y, z'
loop_
 _atom_type_symbol
  Ga
  Mn
loop_
 _atom_site_type_symbol
 _atom_site_label
 _atom_site_symmetry_multiplicity
 _atom_site_fract_x
 _atom_site_fract_y
 _atom_site_fract_z
 _atom_site_occupancy
  Ga  Ga0  1  0.00000000  0.00000000  0.00000000  1
  Ga  Ga1  1  0.49997132  0.88305833  0.11682411  1
  Ga  Ga2  1  0.88317641  0.50003002  0.11694365  1
  Ga  Ga3  1  0.54030247  0.54030787  0.18996691  1
  Ga  Ga4  1  0.81003187  0.45969513  0.45969198  1
  Ga  Ga5  1  0.45969091  0.81003294  0.45969514  1
  Ga  Ga6  1  0.88305944  0.11682324  0.49997108  1
  Ga  Ga7  1  0.11694193  0.88317799  0.50003015  1
  Ga  Ga8  1  0.54030793  0.18996576  0.54030356  1
  Ga  Ga9  1  0.18996697  0.54030357  0.54030672  1
  Ga  Ga10  1  0.45969636  0.45969083  0.81003179  1
  Ga  Ga11  1  0.11682405  0.49997167  0.88305804  1
  Ga  Ga12  1  0.50003005  0.11694291  0.88317712  1
  Mn  Mn0  1  0.81387783  0.81415369  0.16677292  1
  Mn  Mn1  1  0.39857369  0.18020183  0.18009623  1
  Mn  Mn2  1  0.18009583  0.39857349  0.18020242  1
  Mn  Mn3  1  0.83322942  0.18612401  0.18584977  1
  Mn  Mn4  1  0.18584999  0.83322829  0.18612491  1
  Mn  Mn5  1  0.18020229  0.18009639  0.39857306  1
  Mn  Mn6  1  0.50000069  0.50000062  0.50000062  1
  Mn  Mn7  1  0.81979908  0.81990484  0.60142817  1
  Mn  Mn8  1  0.81415264  0.16677421  0.81387759  1
  Mn  Mn9  1  0.16677322  0.81387849  0.81415273  1
  Mn  Mn10  1  0.81990554  0.60142774  0.81979881  1
  Mn  Mn11  1  0.60142768  0.81979941  0.81990501  1
  Mn  Mn12  1  0.18612480  0.18584881  0.83322958  1
