# generated using pymatgen
data_2377_Cu2Ge2
_symmetry_space_group_name_H-M   'P4/nmm'
_cell_length_a   3.15202339
_cell_length_b   3.15202339
_cell_length_c   6.16452911
_cell_angle_alpha   90.00000000
_cell_angle_beta   90.00000000
_cell_angle_gamma   90.00000000
_chemical_formula_structural   Cu2Ge2
_chemical_formula_sum   'Cu2 Ge2'
_cell_volume   61.24614679
loop_
 _symmetry_equiv_pos_site_id
 _symmetry_equiv_pos_as_xyz
  1  'x, y, z'
loop_
 _atom_type_symbol
  Cu
  Ge
loop_
 _atom_site_type_symbol
 _atom_site_label
 _atom_site_symmetry_multiplicity
 _atom_site_fract_x
 _atom_site_fract_y
 _atom_site_fract_z
 _atom_site_occupancy
  Cu  Cu0  1  0.00000000  0.00000000  0.01985423  1
  Cu  Cu1  1  0.50000000  0.50000000  0.23014577  1
  Ge  Ge0  1  0.00000000  0.00000000  0.46217345  1
  Ge  Ge1  1  0.50000000  0.50000000  0.78782655  1
