# generated using pymatgen
data_2378_As8Br4
_symmetry_space_group_name_H-M   'Pa -3'
_cell_length_a   7.22768219
_cell_length_b   7.22768219
_cell_length_c   7.22768219
_cell_angle_alpha   90.00000000
_cell_angle_beta   90.00000000
_cell_angle_gamma   90.00000000
_chemical_formula_structural   As8Br4
_chemical_formula_sum   'As8 Br4'
_cell_volume   377.56970756
loop_
 _symmetry_equiv_pos_site_id
 _symmetry_equiv_pos_as_xyz
  1  'x, y, z'
loop_
 _atom_type_symbol
  As
  Br
loop_
 _atom_site_type_symbol
 _atom_site_label
 _atom_site_symmetry_multiplicity
 _atom_site_fract_x
 _atom_site_fract_y
 _atom_site_fract_z
 _atom_site_occupancy
  As  As0  1  0.58976998  0.58976998  0.41023002  1
  As  As1  1  0.41023002  0.41023002  0.58976998  1
  As  As2  1  0.08976998  0.91023002  0.58976998  1
  As  As3  1  0.91023002  0.08976998  0.41023002  1
  As  As4  1  0.41023002  0.08976998  0.08976998  1
  As  As5  1  0.58976998  0.91023002  0.91023002  1
  As  As6  1  0.91023002  0.41023002  0.91023002  1
  As  As7  1  0.08976998  0.58976998  0.08976998  1
  Br  Br0  1  0.00000000  0.00000000  0.00000000  1
  Br  Br1  1  0.50000000  0.50000000  0.00000000  1
  Br  Br2  1  0.50000000  0.00000000  0.50000000  1
  Br  Br3  1  0.00000000  0.50000000  0.50000000  1
