# generated using pymatgen
data_2382_VBr3
_symmetry_space_group_name_H-M   'I4/mmm'
_cell_length_a   5.02478262
_cell_length_b   5.02478262
_cell_length_c   5.02478262
_cell_angle_alpha   118.90064173
_cell_angle_beta   118.90064173
_cell_angle_gamma   91.91493063
_chemical_formula_structural   VBr3
_chemical_formula_sum   'Br3 V1'
_cell_volume   91.14476820
loop_
 _symmetry_equiv_pos_site_id
 _symmetry_equiv_pos_as_xyz
  1  'x, y, z'
loop_
 _atom_type_symbol
  Br
  V
loop_
 _atom_site_type_symbol
 _atom_site_label
 _atom_site_symmetry_multiplicity
 _atom_site_fract_x
 _atom_site_fract_y
 _atom_site_fract_z
 _atom_site_occupancy
  Br  Br0  1  0.25000000  0.75000000  0.50000000  1
  Br  Br1  1  0.50000000  0.50000000  0.00000000  1
  Br  Br2  1  0.75000000  0.25000000  0.50000000  1
  V  V0  1  0.00000000  0.00000000  0.00000000  1
