# generated using pymatgen
data_2384_Cr12Ta4
_symmetry_space_group_name_H-M   'Pnma'
_cell_length_a   5.12522265
_cell_length_b   8.55851661
_cell_length_c   4.93482573
_cell_angle_alpha   90.00000000
_cell_angle_beta   90.00000000
_cell_angle_gamma   90.00000000
_chemical_formula_structural   Cr12Ta4
_chemical_formula_sum   'Cr12 Ta4'
_cell_volume   216.46269196
loop_
 _symmetry_equiv_pos_site_id
 _symmetry_equiv_pos_as_xyz
  1  'x, y, z'
loop_
 _atom_type_symbol
  Cr
  Ta
loop_
 _atom_site_type_symbol
 _atom_site_label
 _atom_site_symmetry_multiplicity
 _atom_site_fract_x
 _atom_site_fract_y
 _atom_site_fract_z
 _atom_site_occupancy
  Cr  Cr0  1  0.97529825  0.25000000  0.86613729  1
  Cr  Cr1  1  0.52470175  0.75000000  0.36613729  1
  Cr  Cr2  1  0.47529825  0.25000000  0.63386271  1
  Cr  Cr3  1  0.02470175  0.75000000  0.13386271  1
  Cr  Cr4  1  0.27321268  0.97950497  0.37169858  1
  Cr  Cr5  1  0.22678732  0.02049503  0.87169858  1
  Cr  Cr6  1  0.77321268  0.52049503  0.12830142  1
  Cr  Cr7  1  0.72678732  0.47950497  0.62830142  1
  Cr  Cr8  1  0.72678732  0.02049503  0.62830142  1
  Cr  Cr9  1  0.77321268  0.97950497  0.12830142  1
  Cr  Cr10  1  0.22678732  0.47950497  0.87169858  1
  Cr  Cr11  1  0.27321268  0.52049503  0.37169858  1
  Ta  Ta0  1  0.01821294  0.25000000  0.37551731  1
  Ta  Ta1  1  0.48178706  0.75000000  0.87551731  1
  Ta  Ta2  1  0.51821294  0.25000000  0.12448269  1
  Ta  Ta3  1  0.98178706  0.75000000  0.62448269  1
