# generated using pymatgen
data_2385_Cr4Nb2
_symmetry_space_group_name_H-M   'I4_1/amd'
_cell_length_a   3.19449371
_cell_length_b   3.17528074
_cell_length_c   17.31954596
_cell_angle_alpha   90.00000000
_cell_angle_beta   90.00000000
_cell_angle_gamma   90.00000000
_chemical_formula_structural   Cr4Nb2
_chemical_formula_sum   'Cr8 Nb4'
_cell_volume   175.67933105
loop_
 _symmetry_equiv_pos_site_id
 _symmetry_equiv_pos_as_xyz
  1  'x, y, z'
loop_
 _atom_type_symbol
  Cr
  Nb
loop_
 _atom_site_type_symbol
 _atom_site_label
 _atom_site_symmetry_multiplicity
 _atom_site_fract_x
 _atom_site_fract_y
 _atom_site_fract_z
 _atom_site_occupancy
  Cr  Cr0  1  0.00000000  0.25000000  0.04421005  1
  Cr  Cr1  1  0.00000000  0.75000000  0.95578995  1
  Cr  Cr2  1  0.50000000  0.75000000  0.54421005  1
  Cr  Cr3  1  0.50000000  0.25000000  0.45578995  1
  Cr  Cr4  1  0.00000000  0.25000000  0.20628529  1
  Cr  Cr5  1  0.00000000  0.75000000  0.79371471  1
  Cr  Cr6  1  0.50000000  0.75000000  0.70628529  1
  Cr  Cr7  1  0.50000000  0.25000000  0.29371471  1
  Nb  Nb0  1  0.00000000  0.25000000  0.62523992  1
  Nb  Nb1  1  0.00000000  0.75000000  0.37476008  1
  Nb  Nb2  1  0.50000000  0.75000000  0.12523992  1
  Nb  Nb3  1  0.50000000  0.25000000  0.87476008  1
