# generated using pymatgen
data_2386_K6P2
_symmetry_space_group_name_H-M   'I4/mmm'
_cell_length_a   10.05982567
_cell_length_b   10.05982567
_cell_length_c   10.05982567
_cell_angle_alpha   149.00288225
_cell_angle_beta   149.00288225
_cell_angle_gamma   44.40706365
_chemical_formula_structural   K6P2
_chemical_formula_sum   'K6 P2'
_cell_volume   269.20900510
loop_
 _symmetry_equiv_pos_site_id
 _symmetry_equiv_pos_as_xyz
  1  'x, y, z'
loop_
 _atom_type_symbol
  K
  P
loop_
 _atom_site_type_symbol
 _atom_site_label
 _atom_site_symmetry_multiplicity
 _atom_site_fract_x
 _atom_site_fract_y
 _atom_site_fract_z
 _atom_site_occupancy
  K  K0  1  0.50000000  0.00000000  0.50000000  1
  K  K1  1  0.00000000  0.50000000  0.50000000  1
  K  K2  1  0.25000000  0.75000000  0.50000000  1
  K  K3  1  0.75000000  0.25000000  0.50000000  1
  K  K4  1  0.85991390  0.85991390  0.00000000  1
  K  K5  1  0.14008610  0.14008610  0.00000000  1
  P  P0  1  0.63582694  0.63582694  0.00000000  1
  P  P1  1  0.36417306  0.36417306  0.00000000  1
