# generated using pymatgen
data_2388_CaP
_symmetry_space_group_name_H-M   'Immm'
_cell_length_a   3.33008213
_cell_length_b   4.81970000
_cell_length_c   5.88882943
_cell_angle_alpha   90.00000000
_cell_angle_beta   90.00000000
_cell_angle_gamma   90.00000000
_chemical_formula_structural   CaP
_chemical_formula_sum   'Ca2 P2'
_cell_volume   94.51569375
loop_
 _symmetry_equiv_pos_site_id
 _symmetry_equiv_pos_as_xyz
  1  'x, y, z'
loop_
 _atom_type_symbol
  Ca
  P
loop_
 _atom_site_type_symbol
 _atom_site_label
 _atom_site_symmetry_multiplicity
 _atom_site_fract_x
 _atom_site_fract_y
 _atom_site_fract_z
 _atom_site_occupancy
  Ca  Ca0  1  0.00000000  0.00000000  0.12504543  1
  Ca  Ca1  1  0.50000000  0.50000000  0.62495457  1
  P  P0  1  0.00000000  0.00000000  0.62503680  1
  P  P1  1  0.50000000  0.50000000  0.12496320  1
