# generated using pymatgen
data_238_In4Pb16
_symmetry_space_group_name_H-M   'I-43m'
_cell_length_a   10.04977602
_cell_length_b   10.04977602
_cell_length_c   10.04977602
_cell_angle_alpha   109.47122063
_cell_angle_beta   109.47122063
_cell_angle_gamma   109.47122063
_chemical_formula_structural   In4Pb16
_chemical_formula_sum   'In4 Pb16'
_cell_volume   781.35295202
loop_
 _symmetry_equiv_pos_site_id
 _symmetry_equiv_pos_as_xyz
  1  'x, y, z'
loop_
 _atom_type_symbol
  In
  Pb
loop_
 _atom_site_type_symbol
 _atom_site_label
 _atom_site_symmetry_multiplicity
 _atom_site_fract_x
 _atom_site_fract_y
 _atom_site_fract_z
 _atom_site_occupancy
  In  In0  1  0.33147096  0.33147096  0.33147096  1
  In  In1  1  0.66852904  0.00000000  0.00000000  1
  In  In2  1  0.00000000  0.66852904  0.00000000  1
  In  In3  1  0.00000000  0.00000000  0.66852904  1
  Pb  Pb0  1  0.66402995  0.66402995  0.66402995  1
  Pb  Pb1  1  0.33597005  0.00000000  0.00000000  1
  Pb  Pb2  1  0.00000000  0.33597005  0.00000000  1
  Pb  Pb3  1  0.00000000  0.00000000  0.33597005  1
  Pb  Pb4  1  0.66169378  0.66169378  0.00000000  1
  Pb  Pb5  1  0.33830622  0.33830622  0.00000000  1
  Pb  Pb6  1  0.66169378  0.00000000  0.66169378  1
  Pb  Pb7  1  0.33830622  0.00000000  0.33830622  1
  Pb  Pb8  1  1.00000000  0.66169378  0.66169378  1
  Pb  Pb9  1  1.00000000  0.33830622  0.33830622  1
  Pb  Pb10  1  0.24956857  0.74956857  0.50000000  1
  Pb  Pb11  1  0.75043143  0.25043143  0.50000000  1
  Pb  Pb12  1  0.74956857  0.50000000  0.24956857  1
  Pb  Pb13  1  0.25043143  0.50000000  0.75043143  1
  Pb  Pb14  1  0.50000000  0.24956857  0.74956857  1
  Pb  Pb15  1  0.50000000  0.75043143  0.25043143  1
