# generated using pymatgen
data_2393_Pd16Ta14
_symmetry_space_group_name_H-M   'P4_2/mnm'
_cell_length_a   9.80217182
_cell_length_b   9.80217182
_cell_length_c   5.20948788
_cell_angle_alpha   90.00000000
_cell_angle_beta   90.00000000
_cell_angle_gamma   90.00000000
_chemical_formula_structural   Pd16Ta14
_chemical_formula_sum   'Pd16 Ta14'
_cell_volume   500.54099634
loop_
 _symmetry_equiv_pos_site_id
 _symmetry_equiv_pos_as_xyz
  1  'x, y, z'
loop_
 _atom_type_symbol
  Pd
  Ta
loop_
 _atom_site_type_symbol
 _atom_site_label
 _atom_site_symmetry_multiplicity
 _atom_site_fract_x
 _atom_site_fract_y
 _atom_site_fract_z
 _atom_site_occupancy
  Pd  Pd0  1  0.06150862  0.26309428  0.00000000  1
  Pd  Pd1  1  0.93849138  0.73690572  0.00000000  1
  Pd  Pd2  1  0.23690572  0.56150862  0.50000000  1
  Pd  Pd3  1  0.76309428  0.43849138  0.50000000  1
  Pd  Pd4  1  0.43849138  0.76309428  0.50000000  1
  Pd  Pd5  1  0.56150862  0.23690572  0.50000000  1
  Pd  Pd6  1  0.26309428  0.06150862  0.00000000  1
  Pd  Pd7  1  0.73690572  0.93849138  0.00000000  1
  Pd  Pd8  1  0.31856644  0.31856644  0.24905470  1
  Pd  Pd9  1  0.68143356  0.68143356  0.24905470  1
  Pd  Pd10  1  0.18143356  0.81856644  0.74905470  1
  Pd  Pd11  1  0.81856644  0.18143356  0.74905470  1
  Pd  Pd12  1  0.18143356  0.81856644  0.25094530  1
  Pd  Pd13  1  0.81856644  0.18143356  0.25094530  1
  Pd  Pd14  1  0.31856644  0.31856644  0.75094530  1
  Pd  Pd15  1  0.68143356  0.68143356  0.75094530  1
  Ta  Ta0  1  0.00000000  0.00000000  0.00000000  1
  Ta  Ta1  1  0.50000000  0.50000000  0.50000000  1
  Ta  Ta2  1  0.39943807  0.60056193  0.00000000  1
  Ta  Ta3  1  0.60056193  0.39943807  0.00000000  1
  Ta  Ta4  1  0.89943807  0.89943807  0.50000000  1
  Ta  Ta5  1  0.10056193  0.10056193  0.50000000  1
  Ta  Ta6  1  0.12729181  0.53548902  0.00000000  1
  Ta  Ta7  1  0.87270819  0.46451098  0.00000000  1
  Ta  Ta8  1  0.96451098  0.62729181  0.50000000  1
  Ta  Ta9  1  0.03548902  0.37270819  0.50000000  1
  Ta  Ta10  1  0.37270819  0.03548902  0.50000000  1
  Ta  Ta11  1  0.62729181  0.96451098  0.50000000  1
  Ta  Ta12  1  0.53548902  0.12729181  0.00000000  1
  Ta  Ta13  1  0.46451098  0.87270819  0.00000000  1
