# generated using pymatgen
data_2394_Ag4Al8
_symmetry_space_group_name_H-M   'P-1'
_cell_length_a   5.03171141
_cell_length_b   6.93129703
_cell_length_c   6.46820293
_cell_angle_alpha   110.20700995
_cell_angle_beta   74.91159452
_cell_angle_gamma   89.30315724
_chemical_formula_structural   Ag4Al8
_chemical_formula_sum   'Ag4 Al8'
_cell_volume   203.10264282
loop_
 _symmetry_equiv_pos_site_id
 _symmetry_equiv_pos_as_xyz
  1  'x, y, z'
loop_
 _atom_type_symbol
  Ag
  Al
loop_
 _atom_site_type_symbol
 _atom_site_label
 _atom_site_symmetry_multiplicity
 _atom_site_fract_x
 _atom_site_fract_y
 _atom_site_fract_z
 _atom_site_occupancy
  Ag  Ag0  1  0.99710218  0.99273284  0.00115477  1
  Ag  Ag1  1  0.41956449  0.09060049  0.24884523  1
  Ag  Ag2  1  0.25914872  0.26112865  0.75722256  1
  Ag  Ag3  1  0.15751795  0.82220468  0.49277744  1
  Al  Al0  1  0.84417947  0.16731690  0.50263048  1
  Al  Al1  1  0.67929027  0.33295514  0.99901494  1
  Al  Al2  1  0.08242852  0.41679829  0.25090095  1
  Al  Al3  1  0.50427323  0.49826457  0.49803962  1
  Al  Al4  1  0.91239344  0.58506877  0.75196038  1
  Al  Al5  1  0.33423815  0.66653504  0.99909905  1
  Al  Al6  1  0.73737640  0.75037820  0.25098506  1
  Al  Al7  1  0.57248720  0.91601643  0.74736952  1
