# generated using pymatgen
data_2396_Ca5P3
_symmetry_space_group_name_H-M   'Cmmm'
_cell_length_a   7.05738974
_cell_length_b   7.05738974
_cell_length_c   4.47590690
_cell_angle_alpha   90.00000000
_cell_angle_beta   90.00000000
_cell_angle_gamma   113.89021276
_chemical_formula_structural   Ca5P3
_chemical_formula_sum   'Ca5 P3'
_cell_volume   203.83040318
loop_
 _symmetry_equiv_pos_site_id
 _symmetry_equiv_pos_as_xyz
  1  'x, y, z'
loop_
 _atom_type_symbol
  Ca
  P
loop_
 _atom_site_type_symbol
 _atom_site_label
 _atom_site_symmetry_multiplicity
 _atom_site_fract_x
 _atom_site_fract_y
 _atom_site_fract_z
 _atom_site_occupancy
  Ca  Ca0  1  0.00000000  0.00000000  0.00000000  1
  Ca  Ca1  1  0.00000000  0.50000000  0.00000000  1
  Ca  Ca2  1  0.50000000  1.00000000  0.00000000  1
  Ca  Ca3  1  0.28793052  0.28793052  0.50000000  1
  Ca  Ca4  1  0.71206948  0.71206948  0.50000000  1
  P  P0  1  0.50000000  0.50000000  0.00000000  1
  P  P1  1  0.83238130  0.16761870  0.50000000  1
  P  P2  1  0.16761870  0.83238130  0.50000000  1
