# generated using pymatgen
data_2401_Mo4P
_symmetry_space_group_name_H-M   'Im -3 m'
_cell_length_a   4.83414662
_cell_length_b   4.83414662
_cell_length_c   4.83414662
_cell_angle_alpha   109.47122063
_cell_angle_beta   109.47122063
_cell_angle_gamma   109.47122063
_chemical_formula_structural   Mo4P
_chemical_formula_sum   'Mo4 P1'
_cell_volume   86.96361076
loop_
 _symmetry_equiv_pos_site_id
 _symmetry_equiv_pos_as_xyz
  1  'x, y, z'
loop_
 _atom_type_symbol
  Mo
  P
loop_
 _atom_site_type_symbol
 _atom_site_label
 _atom_site_symmetry_multiplicity
 _atom_site_fract_x
 _atom_site_fract_y
 _atom_site_fract_z
 _atom_site_occupancy
  Mo  Mo0  1  0.00000000  0.50000000  0.00000000  1
  Mo  Mo1  1  0.50000000  0.50000000  0.50000000  1
  Mo  Mo2  1  0.00000000  0.00000000  0.50000000  1
  Mo  Mo3  1  0.50000000  0.00000000  0.00000000  1
  P  P0  1  0.00000000  0.00000000  0.00000000  1
