# generated using pymatgen
data_2403_Mo4W2
_symmetry_space_group_name_H-M   'C2/m'
_cell_length_a   3.16828142
_cell_length_b   5.26095817
_cell_length_c   6.34286039
_cell_angle_alpha   72.45341250
_cell_angle_beta   90.00000000
_cell_angle_gamma   107.52443976
_chemical_formula_structural   Mo4W2
_chemical_formula_sum   'Mo4 W2'
_cell_volume   95.64609822
loop_
 _symmetry_equiv_pos_site_id
 _symmetry_equiv_pos_as_xyz
  1  'x, y, z'
loop_
 _atom_type_symbol
  Mo
  W
loop_
 _atom_site_type_symbol
 _atom_site_label
 _atom_site_symmetry_multiplicity
 _atom_site_fract_x
 _atom_site_fract_y
 _atom_site_fract_z
 _atom_site_occupancy
  Mo  Mo0  1  0.02749910  0.05499820  0.94410544  1
  Mo  Mo1  1  0.36090420  0.72180839  0.77775886  1
  Mo  Mo2  1  0.69465136  0.38930272  0.61113003  1
  Mo  Mo3  1  0.02805646  0.05611291  0.44478345  1
  W  W0  1  0.36133785  0.72267571  0.27809043  1
  W  W1  1  0.69421770  0.38843541  0.11079845  1
