# generated using pymatgen
data_2405_Cu8Sn
_symmetry_space_group_name_H-M   'I4/mmm'
_cell_length_a   5.87782160
_cell_length_b   5.87782160
_cell_length_c   5.87782160
_cell_angle_alpha   95.90193042
_cell_angle_beta   95.90193042
_cell_angle_gamma   142.59370639
_chemical_formula_structural   Cu8Sn
_chemical_formula_sum   'Cu8 Sn1'
_cell_volume   116.84427284
loop_
 _symmetry_equiv_pos_site_id
 _symmetry_equiv_pos_as_xyz
  1  'x, y, z'
loop_
 _atom_type_symbol
  Cu
  Sn
loop_
 _atom_site_type_symbol
 _atom_site_label
 _atom_site_symmetry_multiplicity
 _atom_site_fract_x
 _atom_site_fract_y
 _atom_site_fract_z
 _atom_site_occupancy
  Cu  Cu0  1  0.32592973  0.67407027  0.00000000  1
  Cu  Cu1  1  0.67407027  0.32592973  0.00000000  1
  Cu  Cu2  1  1.00000000  0.34110741  0.34110741  1
  Cu  Cu3  1  0.67407027  0.67407027  0.34814054  1
  Cu  Cu4  1  0.34110741  1.00000000  0.34110741  1
  Cu  Cu5  1  0.32592973  0.32592973  0.65185946  1
  Cu  Cu6  1  1.00000000  0.65889259  0.65889259  1
  Cu  Cu7  1  0.65889259  0.00000000  0.65889259  1
  Sn  Sn0  1  0.00000000  0.00000000  0.00000000  1
