# generated using pymatgen
data_2408_AuGa
_symmetry_space_group_name_H-M   'F-43m'
_cell_length_a   4.15528958
_cell_length_b   4.15528958
_cell_length_c   4.15528958
_cell_angle_alpha   60.00000000
_cell_angle_beta   60.00000000
_cell_angle_gamma   60.00000000
_chemical_formula_structural   AuGa
_chemical_formula_sum   'Au1 Ga1'
_cell_volume   50.73280641
loop_
 _symmetry_equiv_pos_site_id
 _symmetry_equiv_pos_as_xyz
  1  'x, y, z'
loop_
 _atom_type_symbol
  Au
  Ga
loop_
 _atom_site_type_symbol
 _atom_site_label
 _atom_site_symmetry_multiplicity
 _atom_site_fract_x
 _atom_site_fract_y
 _atom_site_fract_z
 _atom_site_occupancy
  Au  Au0  1  0.00000000  0.00000000  0.00000000  1
  Ga  Ga0  1  0.25000078  0.25000078  0.25000078  1
