# generated using pymatgen
data_240_PaBi
_symmetry_space_group_name_H-M   'F-43m'
_cell_length_a   5.06734204
_cell_length_b   5.06734204
_cell_length_c   5.06734204
_cell_angle_alpha   60.00000000
_cell_angle_beta   60.00000000
_cell_angle_gamma   60.00000000
_chemical_formula_structural   PaBi
_chemical_formula_sum   'Bi1 Pa1'
_cell_volume   92.00801506
loop_
 _symmetry_equiv_pos_site_id
 _symmetry_equiv_pos_as_xyz
  1  'x, y, z'
loop_
 _atom_type_symbol
  Bi
  Pa
loop_
 _atom_site_type_symbol
 _atom_site_label
 _atom_site_symmetry_multiplicity
 _atom_site_fract_x
 _atom_site_fract_y
 _atom_site_fract_z
 _atom_site_occupancy
  Bi  Bi0  1  0.00000000  0.00000000  0.00000000  1
  Pa  Pa0  1  0.25000032  0.25000032  0.25000032  1
