# generated using pymatgen
data_2412_Fe4Ir8
_symmetry_space_group_name_H-M   'I4_1/amd'
_cell_length_a   3.79059010
_cell_length_b   3.79059010
_cell_length_c   11.81123568
_cell_angle_alpha   99.23391265
_cell_angle_beta   99.23391265
_cell_angle_gamma   90.00000000
_chemical_formula_structural   Fe4Ir8
_chemical_formula_sum   'Fe4 Ir8'
_cell_volume   165.28294320
loop_
 _symmetry_equiv_pos_site_id
 _symmetry_equiv_pos_as_xyz
  1  'x, y, z'
loop_
 _atom_type_symbol
  Fe
  Ir
loop_
 _atom_site_type_symbol
 _atom_site_label
 _atom_site_symmetry_multiplicity
 _atom_site_fract_x
 _atom_site_fract_y
 _atom_site_fract_z
 _atom_site_occupancy
  Fe  Fe0  1  0.08323338  0.08323338  0.16646676  1
  Fe  Fe1  1  0.91676662  0.91676662  0.83353324  1
  Fe  Fe2  1  0.33323338  0.83323338  0.66646676  1
  Fe  Fe3  1  0.16676662  0.66676662  0.33353324  1
  Ir  Ir0  1  0.24906030  0.24906030  0.49812059  1
  Ir  Ir1  1  0.75093970  0.75093970  0.50187941  1
  Ir  Ir2  1  0.49906030  0.99906030  0.99812059  1
  Ir  Ir3  1  0.00093970  0.50093970  0.00187941  1
  Ir  Ir4  1  0.41604126  0.41604126  0.83208251  1
  Ir  Ir5  1  0.58395874  0.58395874  0.16791749  1
  Ir  Ir6  1  0.66604126  0.16604126  0.33208251  1
  Ir  Ir7  1  0.83395874  0.33395874  0.66791749  1
