# generated using pymatgen
data_2415_Ir3Ta
_symmetry_space_group_name_H-M   'Pmmm'
_cell_length_a   2.80024468
_cell_length_b   3.89775976
_cell_length_c   5.60434125
_cell_angle_alpha   90.00000000
_cell_angle_beta   90.00000000
_cell_angle_gamma   90.00000000
_chemical_formula_structural   Ir3Ta
_chemical_formula_sum   'Ir3 Ta1'
_cell_volume   61.16959704
loop_
 _symmetry_equiv_pos_site_id
 _symmetry_equiv_pos_as_xyz
  1  'x, y, z'
loop_
 _atom_type_symbol
  Ir
  Ta
loop_
 _atom_site_type_symbol
 _atom_site_label
 _atom_site_symmetry_multiplicity
 _atom_site_fract_x
 _atom_site_fract_y
 _atom_site_fract_z
 _atom_site_occupancy
  Ir  Ir0  1  0.00000000  0.00000000  0.99063833  1
  Ir  Ir1  1  0.00000000  0.00000000  0.50936167  1
  Ir  Ir2  1  0.50000000  0.50000000  0.75000000  1
  Ta  Ta0  1  0.50000000  0.50000000  0.25000000  1
