# generated using pymatgen
data_2420_As4Br12
_symmetry_space_group_name_H-M   'P2_12_12_1'
_cell_length_a   10.35529693
_cell_length_b   12.31482742
_cell_length_c   4.23907282
_cell_angle_alpha   90.00000000
_cell_angle_beta   90.00000000
_cell_angle_gamma   90.00000000
_chemical_formula_structural   As4Br12
_chemical_formula_sum   'As4 Br12'
_cell_volume   540.58222758
loop_
 _symmetry_equiv_pos_site_id
 _symmetry_equiv_pos_as_xyz
  1  'x, y, z'
loop_
 _atom_type_symbol
  As
  Br
loop_
 _atom_site_type_symbol
 _atom_site_label
 _atom_site_symmetry_multiplicity
 _atom_site_fract_x
 _atom_site_fract_y
 _atom_site_fract_z
 _atom_site_occupancy
  As  As0  1  0.30448993  0.21185020  0.00193994  1
  As  As1  1  0.69551007  0.71185020  0.49806006  1
  As  As2  1  0.19551007  0.78814980  0.50193994  1
  As  As3  1  0.80448993  0.28814980  0.99806006  1
  Br  Br0  1  0.20049889  0.61880885  0.22504591  1
  Br  Br1  1  0.01562155  0.86896096  0.24351717  1
  Br  Br2  1  0.36245374  0.88113352  0.22684845  1
  Br  Br3  1  0.63754626  0.38113352  0.27315155  1
  Br  Br4  1  0.98437845  0.36896096  0.25648283  1
  Br  Br5  1  0.79950111  0.11880885  0.27495409  1
  Br  Br6  1  0.29950111  0.38119115  0.72504591  1
  Br  Br7  1  0.48437845  0.13103904  0.74351717  1
  Br  Br8  1  0.13754626  0.11886648  0.72684845  1
  Br  Br9  1  0.86245374  0.61886648  0.77315155  1
  Br  Br10  1  0.51562155  0.63103904  0.75648283  1
  Br  Br11  1  0.70049889  0.88119115  0.77495409  1
