# generated using pymatgen
data_2424_SmTh
_symmetry_space_group_name_H-M   'P4/mmm'
_cell_length_a   3.58452509
_cell_length_b   5.06928600
_cell_length_c   5.09996200
_cell_angle_alpha   90.00000000
_cell_angle_beta   90.00000000
_cell_angle_gamma   45.00000000
_chemical_formula_structural   SmTh
_chemical_formula_sum   'Sm1 Th1'
_cell_volume   65.52852029
loop_
 _symmetry_equiv_pos_site_id
 _symmetry_equiv_pos_as_xyz
  1  'x, y, z'
loop_
 _atom_type_symbol
  Sm
  Th
loop_
 _atom_site_type_symbol
 _atom_site_label
 _atom_site_symmetry_multiplicity
 _atom_site_fract_x
 _atom_site_fract_y
 _atom_site_fract_z
 _atom_site_occupancy
  Sm  Sm0  1  0.00000000  0.00000000  0.00000000  1
  Th  Th0  1  0.00000000  0.49999941  0.49999985  1
