# generated using pymatgen
data_2426_Sn2W2
_symmetry_space_group_name_H-M   'P4/nmm'
_cell_length_a   3.24331089
_cell_length_b   3.24331089
_cell_length_c   8.17278236
_cell_angle_alpha   90.00000000
_cell_angle_beta   90.00000000
_cell_angle_gamma   90.00000000
_chemical_formula_structural   Sn2W2
_chemical_formula_sum   'Sn2 W2'
_cell_volume   85.97003320
loop_
 _symmetry_equiv_pos_site_id
 _symmetry_equiv_pos_as_xyz
  1  'x, y, z'
loop_
 _atom_type_symbol
  Sn
  W
loop_
 _atom_site_type_symbol
 _atom_site_label
 _atom_site_symmetry_multiplicity
 _atom_site_fract_x
 _atom_site_fract_y
 _atom_site_fract_z
 _atom_site_occupancy
  Sn  Sn0  1  0.00000000  0.00000000  0.94287899  1
  Sn  Sn1  1  0.50000000  0.50000000  0.30712101  1
  W  W0  1  0.00000000  0.00000000  0.54346508  1
  W  W1  1  0.50000000  0.50000000  0.70653492  1
