# generated using pymatgen
data_2431_Ag5Al5
_symmetry_space_group_name_H-M   'P-1'
_cell_length_a   5.07007556
_cell_length_b   7.51956873
_cell_length_c   5.00149997
_cell_angle_alpha   102.61581871
_cell_angle_beta   99.55709517
_cell_angle_gamma   109.44159722
_chemical_formula_structural   Ag5Al5
_chemical_formula_sum   'Ag5 Al5'
_cell_volume   169.45997477
loop_
 _symmetry_equiv_pos_site_id
 _symmetry_equiv_pos_as_xyz
  1  'x, y, z'
loop_
 _atom_type_symbol
  Ag
  Al
loop_
 _atom_site_type_symbol
 _atom_site_label
 _atom_site_symmetry_multiplicity
 _atom_site_fract_x
 _atom_site_fract_y
 _atom_site_fract_z
 _atom_site_occupancy
  Ag  Ag0  1  0.98270857  0.99497787  0.98766565  1
  Ag  Ag1  1  0.60000000  0.10000000  0.30000000  1
  Ag  Ag2  1  0.21729143  0.20502213  0.61233435  1
  Ag  Ag3  1  0.99650898  0.50317774  0.49809377  1
  Ag  Ag4  1  0.20349102  0.69682226  0.10190623  1
  Al  Al0  1  0.80355926  0.30122634  0.89906401  1
  Al  Al1  1  0.40405526  0.39996756  0.20332147  1
  Al  Al2  1  0.60000000  0.60000000  0.80000000  1
  Al  Al3  1  0.79594474  0.80003244  0.39667853  1
  Al  Al4  1  0.39644074  0.89877366  0.70093599  1
