# generated using pymatgen
data_2432_Mo26Nb2
_symmetry_space_group_name_H-M   'Fm -3 c'
_cell_length_a   8.86434351
_cell_length_b   8.86434351
_cell_length_c   8.86434351
_cell_angle_alpha   60.00000000
_cell_angle_beta   60.00000000
_cell_angle_gamma   60.00000000
_chemical_formula_structural   Mo26Nb2
_chemical_formula_sum   'Mo26 Nb2'
_cell_volume   492.52098026
loop_
 _symmetry_equiv_pos_site_id
 _symmetry_equiv_pos_as_xyz
  1  'x, y, z'
loop_
 _atom_type_symbol
  Mo
  Nb
loop_
 _atom_site_type_symbol
 _atom_site_label
 _atom_site_symmetry_multiplicity
 _atom_site_fract_x
 _atom_site_fract_y
 _atom_site_fract_z
 _atom_site_occupancy
  Mo  Mo0  1  0.30532390  0.69467610  0.06218090  1
  Mo  Mo1  1  0.06218090  0.93781910  0.30532390  1
  Mo  Mo2  1  0.93781910  0.06218090  0.69467610  1
  Mo  Mo3  1  0.69467610  0.30532390  0.93781910  1
  Mo  Mo4  1  0.93781910  0.69467610  0.30532390  1
  Mo  Mo5  1  0.69467610  0.93781910  0.06218090  1
  Mo  Mo6  1  0.30532390  0.06218090  0.93781910  1
  Mo  Mo7  1  0.06218090  0.30532390  0.69467610  1
  Mo  Mo8  1  0.06218090  0.69467610  0.93781910  1
  Mo  Mo9  1  0.30532390  0.93781910  0.69467610  1
  Mo  Mo10  1  0.69467610  0.06218090  0.30532390  1
  Mo  Mo11  1  0.93781910  0.30532390  0.06218090  1
  Mo  Mo12  1  0.19467610  0.56218090  0.43781910  1
  Mo  Mo13  1  0.43781910  0.80532390  0.19467610  1
  Mo  Mo14  1  0.56218090  0.19467610  0.80532390  1
  Mo  Mo15  1  0.80532390  0.43781910  0.56218090  1
  Mo  Mo16  1  0.56218090  0.43781910  0.19467610  1
  Mo  Mo17  1  0.80532390  0.19467610  0.43781910  1
  Mo  Mo18  1  0.19467610  0.80532390  0.56218090  1
  Mo  Mo19  1  0.43781910  0.56218090  0.80532390  1
  Mo  Mo20  1  0.43781910  0.19467610  0.56218090  1
  Mo  Mo21  1  0.19467610  0.43781910  0.80532390  1
  Mo  Mo22  1  0.80532390  0.56218090  0.19467610  1
  Mo  Mo23  1  0.56218090  0.80532390  0.43781910  1
  Mo  Mo24  1  0.00000000  0.00000000  0.00000000  1
  Mo  Mo25  1  0.50000000  0.50000000  0.50000000  1
  Nb  Nb0  1  0.25000000  0.25000000  0.25000000  1
  Nb  Nb1  1  0.75000000  0.75000000  0.75000000  1
