# generated using pymatgen
data_2436_WP
_symmetry_space_group_name_H-M   'Pm -3 m'
_cell_length_a   3.00973494
_cell_length_b   4.27083824
_cell_length_c   4.27445361
_cell_angle_alpha   90.00000000
_cell_angle_beta   90.00000000
_cell_angle_gamma   90.00000000
_chemical_formula_structural   WP
_chemical_formula_sum   'P2 W2'
_cell_volume   54.94421599
loop_
 _symmetry_equiv_pos_site_id
 _symmetry_equiv_pos_as_xyz
  1  'x, y, z'
loop_
 _atom_type_symbol
  P
  W
loop_
 _atom_site_type_symbol
 _atom_site_label
 _atom_site_symmetry_multiplicity
 _atom_site_fract_x
 _atom_site_fract_y
 _atom_site_fract_z
 _atom_site_occupancy
  P  P0  1  0.00000000  0.00000000  0.91751971  1
  P  P1  1  0.00000000  0.50000000  0.41581363  1
  W  W0  1  0.50000000  0.00000000  0.41764864  1
  W  W1  1  0.50000000  0.50000000  0.91568469  1
