# generated using pymatgen
data_2438_Ag3Al5
_symmetry_space_group_name_H-M   'P1'
_cell_length_a   5.09479945
_cell_length_b   5.69416395
_cell_length_c   4.93740503
_cell_angle_alpha   90.03950420
_cell_angle_beta   99.71557813
_cell_angle_gamma   73.85551767
_chemical_formula_structural   Ag3Al5
_chemical_formula_sum   'Ag3 Al5'
_cell_volume   135.45328790
loop_
 _symmetry_equiv_pos_site_id
 _symmetry_equiv_pos_as_xyz
  1  'x, y, z'
loop_
 _atom_type_symbol
  Ag
  Al
loop_
 _atom_site_type_symbol
 _atom_site_label
 _atom_site_symmetry_multiplicity
 _atom_site_fract_x
 _atom_site_fract_y
 _atom_site_fract_z
 _atom_site_occupancy
  Ag  Ag0  1  0.00154836  0.99057381  0.99664938  1
  Ag  Ag1  1  0.49785498  0.11936785  0.25509699  1
  Ag  Ag2  1  0.50112149  0.39067716  0.75120748  1
  Al  Al0  1  0.00212706  0.24965796  0.49631245  1
  Al  Al1  1  0.99914251  0.49621390  0.99697848  1
  Al  Al2  1  0.50056552  0.62173908  0.25442226  1
  Al  Al3  1  0.99649018  0.74773461  0.49459143  1
  Al  Al4  1  0.50114989  0.88403562  0.75474153  1
