# generated using pymatgen
data_2440_Cu2Ge6
_symmetry_space_group_name_H-M   'I4/mmm'
_cell_length_a   8.99380945
_cell_length_b   8.99380945
_cell_length_c   8.99380945
_cell_angle_alpha   154.10016681
_cell_angle_beta   154.10016681
_cell_angle_gamma   36.95403045
_chemical_formula_structural   Cu2Ge6
_chemical_formula_sum   'Cu2 Ge6'
_cell_volume   138.60748709
loop_
 _symmetry_equiv_pos_site_id
 _symmetry_equiv_pos_as_xyz
  1  'x, y, z'
loop_
 _atom_type_symbol
  Cu
  Ge
loop_
 _atom_site_type_symbol
 _atom_site_label
 _atom_site_symmetry_multiplicity
 _atom_site_fract_x
 _atom_site_fract_y
 _atom_site_fract_z
 _atom_site_occupancy
  Cu  Cu0  1  0.62507073  0.62507073  0.00000000  1
  Cu  Cu1  1  0.37492927  0.37492927  0.00000000  1
  Ge  Ge0  1  0.50000000  0.00000000  0.50000000  1
  Ge  Ge1  1  0.00000000  0.50000000  0.50000000  1
  Ge  Ge2  1  0.25000000  0.75000000  0.50000000  1
  Ge  Ge3  1  0.75000000  0.25000000  0.50000000  1
  Ge  Ge4  1  0.87519847  0.87519847  0.00000000  1
  Ge  Ge5  1  0.12480153  0.12480153  0.00000000  1
