# generated using pymatgen
data_2442_V3Ge
_symmetry_space_group_name_H-M   'I4/mmm'
_cell_length_a   4.41887372
_cell_length_b   4.41887372
_cell_length_c   4.41887372
_cell_angle_alpha   126.07300871
_cell_angle_beta   126.07300871
_cell_angle_gamma   79.76817897
_chemical_formula_structural   V3Ge
_chemical_formula_sum   'Ge1 V3'
_cell_volume   54.44913836
loop_
 _symmetry_equiv_pos_site_id
 _symmetry_equiv_pos_as_xyz
  1  'x, y, z'
loop_
 _atom_type_symbol
  Ge
  V
loop_
 _atom_site_type_symbol
 _atom_site_label
 _atom_site_symmetry_multiplicity
 _atom_site_fract_x
 _atom_site_fract_y
 _atom_site_fract_z
 _atom_site_occupancy
  Ge  Ge0  1  0.00000000  0.00000000  0.00000000  1
  V  V0  1  0.25000000  0.75000000  0.50000000  1
  V  V1  1  0.50000000  0.50000000  0.00000000  1
  V  V2  1  0.75000000  0.25000000  0.50000000  1
