# generated using pymatgen
data_2443_Ag2In2
_symmetry_space_group_name_H-M   'P4/nmm'
_cell_length_a   3.13346501
_cell_length_b   3.13346501
_cell_length_c   8.87691574
_cell_angle_alpha   90.00000000
_cell_angle_beta   90.00000000
_cell_angle_gamma   90.00000000
_chemical_formula_structural   Ag2In2
_chemical_formula_sum   'Ag2 In2'
_cell_volume   87.15891124
loop_
 _symmetry_equiv_pos_site_id
 _symmetry_equiv_pos_as_xyz
  1  'x, y, z'
loop_
 _atom_type_symbol
  Ag
  In
loop_
 _atom_site_type_symbol
 _atom_site_label
 _atom_site_symmetry_multiplicity
 _atom_site_fract_x
 _atom_site_fract_y
 _atom_site_fract_z
 _atom_site_occupancy
  Ag  Ag0  1  0.25000000  0.25000000  0.10853955  1
  Ag  Ag1  1  0.75000000  0.75000000  0.89146045  1
  In  In0  1  0.25000000  0.25000000  0.64874851  1
  In  In1  1  0.75000000  0.75000000  0.35125149  1
