# generated using pymatgen
data_2444_AuAs4
_symmetry_space_group_name_H-M   'I4/mmm'
_cell_length_a   5.53961307
_cell_length_b   5.53961307
_cell_length_c   5.53961307
_cell_angle_alpha   125.62297129
_cell_angle_beta   125.62297129
_cell_angle_gamma   80.50870068
_chemical_formula_structural   AuAs4
_chemical_formula_sum   'As4 Au1'
_cell_volume   108.34448937
loop_
 _symmetry_equiv_pos_site_id
 _symmetry_equiv_pos_as_xyz
  1  'x, y, z'
loop_
 _atom_type_symbol
  As
  Au
loop_
 _atom_site_type_symbol
 _atom_site_label
 _atom_site_symmetry_multiplicity
 _atom_site_fract_x
 _atom_site_fract_y
 _atom_site_fract_z
 _atom_site_occupancy
  As  As0  1  0.25000000  0.75000000  0.50000000  1
  As  As1  1  0.75000000  0.25000000  0.50000000  1
  As  As2  1  0.64228577  0.64228577  0.00000000  1
  As  As3  1  0.35771423  0.35771423  0.00000000  1
  Au  Au0  1  0.00000000  0.00000000  0.00000000  1
