# generated using pymatgen
data_2445_Pd3Ta
_symmetry_space_group_name_H-M   'P4/mmm'
_cell_length_a   2.84776374
_cell_length_b   2.84776374
_cell_length_c   7.89148405
_cell_angle_alpha   90.00000000
_cell_angle_beta   90.00000000
_cell_angle_gamma   90.00000000
_chemical_formula_structural   Pd3Ta
_chemical_formula_sum   'Pd3 Ta1'
_cell_volume   63.99802831
loop_
 _symmetry_equiv_pos_site_id
 _symmetry_equiv_pos_as_xyz
  1  'x, y, z'
loop_
 _atom_type_symbol
  Pd
  Ta
loop_
 _atom_site_type_symbol
 _atom_site_label
 _atom_site_symmetry_multiplicity
 _atom_site_fract_x
 _atom_site_fract_y
 _atom_site_fract_z
 _atom_site_occupancy
  Pd  Pd0  1  0.00000000  0.00000000  0.00493806  1
  Pd  Pd1  1  0.00000000  0.00000000  0.49506194  1
  Pd  Pd2  1  0.50000000  0.50000000  0.75000000  1
  Ta  Ta0  1  0.50000000  0.50000000  0.25000000  1
