# generated using pymatgen
data_244_Ni4Rh2
_symmetry_space_group_name_H-M   'Cmmm'
_cell_length_a   4.10401334
_cell_length_b   4.80425275
_cell_length_c   4.13201054
_cell_angle_alpha   64.53010730
_cell_angle_beta   90.00000000
_cell_angle_gamma   90.00000000
_chemical_formula_structural   Ni4Rh2
_chemical_formula_sum   'Ni4 Rh2'
_cell_volume   73.55175779
loop_
 _symmetry_equiv_pos_site_id
 _symmetry_equiv_pos_as_xyz
  1  'x, y, z'
loop_
 _atom_type_symbol
  Ni
  Rh
loop_
 _atom_site_type_symbol
 _atom_site_label
 _atom_site_symmetry_multiplicity
 _atom_site_fract_x
 _atom_site_fract_y
 _atom_site_fract_z
 _atom_site_occupancy
  Ni  Ni0  1  1.00000000  0.00865748  0.99567126  1
  Ni  Ni1  1  0.50000000  0.33333333  0.83333333  1
  Ni  Ni2  1  0.00000000  0.65800918  0.67099541  1
  Ni  Ni3  1  1.00000000  0.33333333  0.33333333  1
  Rh  Rh0  1  0.50000000  0.01400550  0.49299725  1
  Rh  Rh1  1  0.50000000  0.65266117  0.17366942  1
