# generated using pymatgen
data_2450_CePt
_symmetry_space_group_name_H-M   'P-6m2'
_cell_length_a   3.66029600
_cell_length_b   3.66028756
_cell_length_c   4.23016600
_cell_angle_alpha   90.00000000
_cell_angle_beta   90.00000000
_cell_angle_gamma   120.00009434
_chemical_formula_structural   CePt
_chemical_formula_sum   'Ce1 Pt1'
_cell_volume   49.08163736
loop_
 _symmetry_equiv_pos_site_id
 _symmetry_equiv_pos_as_xyz
  1  'x, y, z'
loop_
 _atom_type_symbol
  Ce
  Pt
loop_
 _atom_site_type_symbol
 _atom_site_label
 _atom_site_symmetry_multiplicity
 _atom_site_fract_x
 _atom_site_fract_y
 _atom_site_fract_z
 _atom_site_occupancy
  Ce  Ce0  1  0.66666831  0.33333554  0.74999887  1
  Pt  Pt0  1  0.33333248  0.66666474  0.24999962  1
