# generated using pymatgen
data_2451_Fe2V
_symmetry_space_group_name_H-M   'Fmmm'
_cell_length_a   6.35883066
_cell_length_b   6.20656353
_cell_length_c   2.48952239
_cell_angle_alpha   82.02327504
_cell_angle_beta   75.15316580
_cell_angle_gamma   22.81766724
_chemical_formula_structural   Fe2V
_chemical_formula_sum   'Fe2 V1'
_cell_volume   35.56494712
loop_
 _symmetry_equiv_pos_site_id
 _symmetry_equiv_pos_as_xyz
  1  'x, y, z'
loop_
 _atom_type_symbol
  Fe
  V
loop_
 _atom_site_type_symbol
 _atom_site_label
 _atom_site_symmetry_multiplicity
 _atom_site_fract_x
 _atom_site_fract_y
 _atom_site_fract_z
 _atom_site_occupancy
  Fe  Fe0  1  0.00208956  0.00200817  0.99784237  1
  Fe  Fe1  1  0.66457711  0.66465850  0.33549096  1
  V  V0  1  0.33333333  0.33333333  0.66666667  1
