# generated using pymatgen
data_2461_RhSr
_symmetry_space_group_name_H-M   'F-43m'
_cell_length_a   4.51977360
_cell_length_b   4.51977360
_cell_length_c   4.51977360
_cell_angle_alpha   60.00000000
_cell_angle_beta   60.00000000
_cell_angle_gamma   60.00000000
_chemical_formula_structural   RhSr
_chemical_formula_sum   'Rh1 Sr1'
_cell_volume   65.28825253
loop_
 _symmetry_equiv_pos_site_id
 _symmetry_equiv_pos_as_xyz
  1  'x, y, z'
loop_
 _atom_type_symbol
  Rh
  Sr
loop_
 _atom_site_type_symbol
 _atom_site_label
 _atom_site_symmetry_multiplicity
 _atom_site_fract_x
 _atom_site_fract_y
 _atom_site_fract_z
 _atom_site_occupancy
  Rh  Rh0  1  0.00000000  0.00000000  0.00000000  1
  Sr  Sr0  1  0.25000074  0.25000074  0.25000074  1
