# generated using pymatgen
data_2467_Cu6Pt5
_symmetry_space_group_name_H-M   'P1'
_cell_length_a   4.66040429
_cell_length_b   6.03717220
_cell_length_c   5.99957189
_cell_angle_alpha   72.49910412
_cell_angle_beta   75.26561662
_cell_angle_gamma   97.65804929
_chemical_formula_structural   Cu6Pt5
_chemical_formula_sum   'Cu6 Pt5'
_cell_volume   151.61532365
loop_
 _symmetry_equiv_pos_site_id
 _symmetry_equiv_pos_as_xyz
  1  'x, y, z'
loop_
 _atom_type_symbol
  Cu
  Pt
loop_
 _atom_site_type_symbol
 _atom_site_label
 _atom_site_symmetry_multiplicity
 _atom_site_fract_x
 _atom_site_fract_y
 _atom_site_fract_z
 _atom_site_occupancy
  Cu  Cu0  1  0.99776404  0.99860813  0.00708460  1
  Cu  Cu1  1  0.45728418  0.09023628  0.18188334  1
  Cu  Cu2  1  0.90704315  0.17823905  0.36306664  1
  Cu  Cu3  1  0.81933300  0.36356560  0.72509603  1
  Cu  Cu4  1  0.18008803  0.63781367  0.27350841  1
  Cu  Cu5  1  0.63818014  0.73113588  0.45091674  1
  Pt  Pt0  1  0.36201145  0.27533195  0.53983470  1
  Pt  Pt1  1  0.26846256  0.44237958  0.91642082  1
  Pt  Pt2  1  0.73195654  0.54944734  0.09548926  1
  Pt  Pt3  1  0.09245423  0.81683670  0.62177742  1
  Pt  Pt4  1  0.54542269  0.91640583  0.82492204  1
