# generated using pymatgen
data_2470_Fe2W2
_symmetry_space_group_name_H-M   'I4_1/amd'
_cell_length_a   3.66095649
_cell_length_b   4.75554309
_cell_length_c   3.66095649
_cell_angle_alpha   67.36155766
_cell_angle_beta   90.00000000
_cell_angle_gamma   112.63844234
_chemical_formula_structural   Fe2W2
_chemical_formula_sum   'Fe2 W2'
_cell_volume   53.46595081
loop_
 _symmetry_equiv_pos_site_id
 _symmetry_equiv_pos_as_xyz
  1  'x, y, z'
loop_
 _atom_type_symbol
  Fe
  W
loop_
 _atom_site_type_symbol
 _atom_site_label
 _atom_site_symmetry_multiplicity
 _atom_site_fract_x
 _atom_site_fract_y
 _atom_site_fract_z
 _atom_site_occupancy
  Fe  Fe0  1  0.00000000  0.00000000  0.00000000  1
  Fe  Fe1  1  0.75000000  0.50000000  0.75000000  1
  W  W0  1  0.25000000  0.50000000  0.25000000  1
  W  W1  1  0.50000000  0.00000000  0.50000000  1
