# generated using pymatgen
data_2471_Au2Nb2
_symmetry_space_group_name_H-M   'Cmcm'
_cell_length_a   2.74266344
_cell_length_b   4.59655381
_cell_length_c   5.81087246
_cell_angle_alpha   90.00000000
_cell_angle_beta   76.34977015
_cell_angle_gamma   90.00000000
_chemical_formula_structural   Au2Nb2
_chemical_formula_sum   'Au2 Nb2'
_cell_volume   71.18733958
loop_
 _symmetry_equiv_pos_site_id
 _symmetry_equiv_pos_as_xyz
  1  'x, y, z'
loop_
 _atom_type_symbol
  Au
  Nb
loop_
 _atom_site_type_symbol
 _atom_site_label
 _atom_site_symmetry_multiplicity
 _atom_site_fract_x
 _atom_site_fract_y
 _atom_site_fract_z
 _atom_site_occupancy
  Au  Au0  1  0.06978553  0.25000000  0.86042893  1
  Au  Au1  1  0.93021447  0.75000000  0.13957107  1
  Nb  Nb0  1  0.32605044  0.25000000  0.34789912  1
  Nb  Nb1  1  0.67394956  0.75000000  0.65210088  1
