# generated using pymatgen
data_2476_Fe4Mo8
_symmetry_space_group_name_H-M   'Pa -3'
_cell_length_a   5.72649750
_cell_length_b   5.72649750
_cell_length_c   5.72649750
_cell_angle_alpha   90.00000000
_cell_angle_beta   90.00000000
_cell_angle_gamma   90.00000000
_chemical_formula_structural   Fe4Mo8
_chemical_formula_sum   'Fe4 Mo8'
_cell_volume   187.78773614
loop_
 _symmetry_equiv_pos_site_id
 _symmetry_equiv_pos_as_xyz
  1  'x, y, z'
loop_
 _atom_type_symbol
  Fe
  Mo
loop_
 _atom_site_type_symbol
 _atom_site_label
 _atom_site_symmetry_multiplicity
 _atom_site_fract_x
 _atom_site_fract_y
 _atom_site_fract_z
 _atom_site_occupancy
  Fe  Fe0  1  0.00000000  0.00000000  0.00000000  1
  Fe  Fe1  1  0.50000000  0.50000000  0.00000000  1
  Fe  Fe2  1  0.50000000  0.00000000  0.50000000  1
  Fe  Fe3  1  0.00000000  0.50000000  0.50000000  1
  Mo  Mo0  1  0.36837161  0.36837161  0.36837161  1
  Mo  Mo1  1  0.63162839  0.63162839  0.63162839  1
  Mo  Mo2  1  0.86837161  0.13162839  0.63162839  1
  Mo  Mo3  1  0.13162839  0.86837161  0.36837161  1
  Mo  Mo4  1  0.63162839  0.86837161  0.13162839  1
  Mo  Mo5  1  0.36837161  0.13162839  0.86837161  1
  Mo  Mo6  1  0.13162839  0.63162839  0.86837161  1
  Mo  Mo7  1  0.86837161  0.36837161  0.13162839  1
