# generated using pymatgen
data_2480_NbP2
_symmetry_space_group_name_H-M   'I4/mmm'
_cell_length_a   4.64685293
_cell_length_b   4.64685293
_cell_length_c   4.64685293
_cell_angle_alpha   138.77934556
_cell_angle_beta   138.77934556
_cell_angle_gamma   59.71146671
_chemical_formula_structural   NbP2
_chemical_formula_sum   'Nb1 P2'
_cell_volume   43.13281588
loop_
 _symmetry_equiv_pos_site_id
 _symmetry_equiv_pos_as_xyz
  1  'x, y, z'
loop_
 _atom_type_symbol
  Nb
  P
loop_
 _atom_site_type_symbol
 _atom_site_label
 _atom_site_symmetry_multiplicity
 _atom_site_fract_x
 _atom_site_fract_y
 _atom_site_fract_z
 _atom_site_occupancy
  Nb  Nb0  1  0.00000000  0.00000000  0.00000000  1
  P  P0  1  0.33356643  0.33356643  0.00000000  1
  P  P1  1  0.66643357  0.66643357  0.00000000  1
