# generated using pymatgen
data_2482_Ac3Mn
_symmetry_space_group_name_H-M   'I4/mmm'
_cell_length_a   6.21686703
_cell_length_b   6.21686703
_cell_length_c   6.21686703
_cell_angle_alpha   134.25903845
_cell_angle_beta   134.25903845
_cell_angle_gamma   66.68369236
_chemical_formula_structural   Ac3Mn
_chemical_formula_sum   'Ac3 Mn1'
_cell_volume   121.27971614
loop_
 _symmetry_equiv_pos_site_id
 _symmetry_equiv_pos_as_xyz
  1  'x, y, z'
loop_
 _atom_type_symbol
  Ac
  Mn
loop_
 _atom_site_type_symbol
 _atom_site_label
 _atom_site_symmetry_multiplicity
 _atom_site_fract_x
 _atom_site_fract_y
 _atom_site_fract_z
 _atom_site_occupancy
  Ac  Ac0  1  0.74999940  0.24999958  0.49999982  1
  Ac  Ac1  1  0.24999958  0.74999940  0.49999982  1
  Ac  Ac2  1  0.50000012  0.50000012  0.00000000  1
  Mn  Mn0  1  0.00000000  0.00000000  0.00000000  1
