# generated using pymatgen
data_2485_W8Sb16
_symmetry_space_group_name_H-M   'Fd -3 m'
_cell_length_a   9.28889829
_cell_length_b   9.28889829
_cell_length_c   9.28889829
_cell_angle_alpha   60.00000000
_cell_angle_beta   60.00000000
_cell_angle_gamma   60.00000000
_chemical_formula_structural   W8Sb16
_chemical_formula_sum   'Sb16 W8'
_cell_volume   566.73185554
loop_
 _symmetry_equiv_pos_site_id
 _symmetry_equiv_pos_as_xyz
  1  'x, y, z'
loop_
 _atom_type_symbol
  Sb
  W
loop_
 _atom_site_type_symbol
 _atom_site_label
 _atom_site_symmetry_multiplicity
 _atom_site_fract_x
 _atom_site_fract_y
 _atom_site_fract_z
 _atom_site_occupancy
  Sb  Sb0  1  0.00000000  0.50000000  0.00000000  1
  Sb  Sb1  1  0.50000000  0.00000000  0.00000000  1
  Sb  Sb2  1  0.50000000  0.50000000  0.00000000  1
  Sb  Sb3  1  0.50000000  0.50000000  0.50000000  1
  Sb  Sb4  1  0.90574972  0.90574972  0.84425028  1
  Sb  Sb5  1  0.90574972  0.34425028  0.84425028  1
  Sb  Sb6  1  0.34425028  0.90574972  0.84425028  1
  Sb  Sb7  1  0.90574972  0.34425028  0.40574972  1
  Sb  Sb8  1  0.34425028  0.90574972  0.40574972  1
  Sb  Sb9  1  0.34425028  0.34425028  0.40574972  1
  Sb  Sb10  1  0.09425028  0.09425028  0.15574972  1
  Sb  Sb11  1  0.09425028  0.65574972  0.15574972  1
  Sb  Sb12  1  0.65574972  0.09425028  0.15574972  1
  Sb  Sb13  1  0.09425028  0.65574972  0.59425028  1
  Sb  Sb14  1  0.65574972  0.09425028  0.59425028  1
  Sb  Sb15  1  0.65574972  0.65574972  0.59425028  1
  W  W0  1  0.70515621  0.70515621  0.88453137  1
  W  W1  1  0.70515621  0.70515621  0.20515621  1
  W  W2  1  0.70515621  0.38453137  0.20515621  1
  W  W3  1  0.38453137  0.70515621  0.20515621  1
  W  W4  1  0.29484379  0.29484379  0.11546863  1
  W  W5  1  0.29484379  0.29484379  0.79484379  1
  W  W6  1  0.29484379  0.61546863  0.79484379  1
  W  W7  1  0.61546863  0.29484379  0.79484379  1
