# generated using pymatgen
data_2486_Nb6Pt2
_symmetry_space_group_name_H-M   'Cmcm'
_cell_length_a   10.99884201
_cell_length_b   13.67193097
_cell_length_c   2.63918096
_cell_angle_alpha   90.00000000
_cell_angle_beta   90.00000000
_cell_angle_gamma   90.00000000
_chemical_formula_structural   Nb6Pt2
_chemical_formula_sum   'Nb12 Pt4'
_cell_volume   396.86791552
loop_
 _symmetry_equiv_pos_site_id
 _symmetry_equiv_pos_as_xyz
  1  'x, y, z'
loop_
 _atom_type_symbol
  Nb
  Pt
loop_
 _atom_site_type_symbol
 _atom_site_label
 _atom_site_symmetry_multiplicity
 _atom_site_fract_x
 _atom_site_fract_y
 _atom_site_fract_z
 _atom_site_occupancy
  Nb  Nb0  1  0.00000000  0.10332938  0.75000000  1
  Nb  Nb1  1  0.50000000  0.60332938  0.75000000  1
  Nb  Nb2  1  0.00000000  0.89667062  0.25000000  1
  Nb  Nb3  1  0.50000000  0.39667062  0.25000000  1
  Nb  Nb4  1  0.13693011  0.73810238  0.75000000  1
  Nb  Nb5  1  0.63693011  0.23810238  0.75000000  1
  Nb  Nb6  1  0.36306989  0.76189762  0.25000000  1
  Nb  Nb7  1  0.86306989  0.26189762  0.25000000  1
  Nb  Nb8  1  0.36306989  0.23810238  0.75000000  1
  Nb  Nb9  1  0.86306989  0.73810238  0.75000000  1
  Nb  Nb10  1  0.13693011  0.26189762  0.25000000  1
  Nb  Nb11  1  0.63693011  0.76189762  0.25000000  1
  Pt  Pt0  1  0.00000000  0.41283018  0.25000000  1
  Pt  Pt1  1  0.50000000  0.91283018  0.25000000  1
  Pt  Pt2  1  0.00000000  0.58716982  0.75000000  1
  Pt  Pt3  1  0.50000000  0.08716982  0.75000000  1
