# generated using pymatgen
data_248_Cu5Pt7
_symmetry_space_group_name_H-M   'P1'
_cell_length_a   4.71106501
_cell_length_b   5.46244668
_cell_length_c   7.21216684
_cell_angle_alpha   79.29889030
_cell_angle_beta   96.23053849
_cell_angle_gamma   72.77072781
_chemical_formula_structural   Cu5Pt7
_chemical_formula_sum   'Cu5 Pt7'
_cell_volume   171.52180248
loop_
 _symmetry_equiv_pos_site_id
 _symmetry_equiv_pos_as_xyz
  1  'x, y, z'
loop_
 _atom_type_symbol
  Cu
  Pt
loop_
 _atom_site_type_symbol
 _atom_site_label
 _atom_site_symmetry_multiplicity
 _atom_site_fract_x
 _atom_site_fract_y
 _atom_site_fract_z
 _atom_site_occupancy
  Cu  Cu0  1  0.00003472  0.99827163  0.00473996  1
  Cu  Cu1  1  0.50424357  0.07906203  0.16837880  1
  Cu  Cu2  1  0.99930717  0.16441540  0.33121856  1
  Cu  Cu3  1  0.99862938  0.33407030  0.66545648  1
  Cu  Cu4  1  0.99756461  0.67102816  0.33017657  1
  Pt  Pt0  1  0.49084412  0.25705929  0.49431412  1
  Pt  Pt1  1  0.50605160  0.41089614  0.83949250  1
  Pt  Pt2  1  0.00727993  0.48682580  0.01198336  1
  Pt  Pt3  1  0.50049914  0.58517341  0.16851225  1
  Pt  Pt4  1  0.50064288  0.75535440  0.49214195  1
  Pt  Pt5  1  0.99884436  0.83637995  0.65952712  1
  Pt  Pt6  1  0.49605852  0.92146349  0.83405833  1
