# generated using pymatgen
data_2491_Cu2Ta2
_symmetry_space_group_name_H-M   'P4/nmm'
_cell_length_a   2.80186305
_cell_length_b   2.80186305
_cell_length_c   7.77008900
_cell_angle_alpha   90.00000000
_cell_angle_beta   90.00000000
_cell_angle_gamma   90.00000000
_chemical_formula_structural   Cu2Ta2
_chemical_formula_sum   'Cu2 Ta2'
_cell_volume   60.99859053
loop_
 _symmetry_equiv_pos_site_id
 _symmetry_equiv_pos_as_xyz
  1  'x, y, z'
loop_
 _atom_type_symbol
  Cu
  Ta
loop_
 _atom_site_type_symbol
 _atom_site_label
 _atom_site_symmetry_multiplicity
 _atom_site_fract_x
 _atom_site_fract_y
 _atom_site_fract_z
 _atom_site_occupancy
  Cu  Cu0  1  0.00000000  0.00000000  0.97714926  1
  Cu  Cu1  1  0.50000000  0.50000000  0.77285074  1
  Ta  Ta0  1  0.00000000  0.00000000  0.52224096  1
  Ta  Ta1  1  0.50000000  0.50000000  0.22775904  1
