# generated using pymatgen
data_2492_Cu4Pt7
_symmetry_space_group_name_H-M   'P-1'
_cell_length_a   4.71334955
_cell_length_b   7.24206071
_cell_length_c   4.75971531
_cell_angle_alpha   96.44097725
_cell_angle_beta   99.53380339
_cell_angle_gamma   89.86744366
_chemical_formula_structural   Cu4Pt7
_chemical_formula_sum   'Cu4 Pt7'
_cell_volume   159.19253749
loop_
 _symmetry_equiv_pos_site_id
 _symmetry_equiv_pos_as_xyz
  1  'x, y, z'
loop_
 _atom_type_symbol
  Cu
  Pt
loop_
 _atom_site_type_symbol
 _atom_site_label
 _atom_site_symmetry_multiplicity
 _atom_site_fract_x
 _atom_site_fract_y
 _atom_site_fract_z
 _atom_site_occupancy
  Cu  Cu0  1  0.00031863  0.00106588  0.99959616  1
  Cu  Cu1  1  0.08943807  0.18328840  0.54535040  1
  Cu  Cu2  1  0.72874375  0.45307524  0.36374051  1
  Cu  Cu3  1  0.81786319  0.63529776  0.90949475  1
  Pt  Pt0  1  0.54779531  0.09329081  0.27410276  1
  Pt  Pt1  1  0.64188432  0.27343623  0.81776504  1
  Pt  Pt2  1  0.17629750  0.36292741  0.09132587  1
  Pt  Pt3  1  0.27038650  0.54307283  0.63498815  1
  Pt  Pt4  1  0.36259592  0.72547037  0.17942114  1
  Pt  Pt5  1  0.90909091  0.81818182  0.45454545  1
  Pt  Pt6  1  0.45558590  0.91089327  0.72966977  1
