# generated using pymatgen
data_2493_In5Br
_symmetry_space_group_name_H-M   'Cm'
_cell_length_a   6.32720340
_cell_length_b   6.32720340
_cell_length_c   8.32789506
_cell_angle_alpha   73.89748789
_cell_angle_beta   73.89748789
_cell_angle_gamma   32.61401145
_chemical_formula_structural   In5Br
_chemical_formula_sum   'Br1 In5'
_cell_volume   172.02540371
loop_
 _symmetry_equiv_pos_site_id
 _symmetry_equiv_pos_as_xyz
  1  'x, y, z'
loop_
 _atom_type_symbol
  Br
  In
loop_
 _atom_site_type_symbol
 _atom_site_label
 _atom_site_symmetry_multiplicity
 _atom_site_fract_x
 _atom_site_fract_y
 _atom_site_fract_z
 _atom_site_occupancy
  Br  Br0  1  0.99821665  0.99821665  0.00284265  1
  In  In0  1  0.33338955  0.33338955  0.33517795  1
  In  In1  1  0.66707858  0.66707858  0.66634968  1
  In  In2  1  0.61258055  0.61258055  0.27775671  1
  In  In3  1  0.94612099  0.94612099  0.60822806  1
  In  In4  1  0.27594701  0.27594701  0.94297828  1
