# generated using pymatgen
data_2494_Sb6Ge2
_symmetry_space_group_name_H-M   'Cmcm'
_cell_length_a   6.51577607
_cell_length_b   6.51577607
_cell_length_c   5.21717238
_cell_angle_alpha   90.00000000
_cell_angle_beta   90.00000000
_cell_angle_gamma   108.25150823
_chemical_formula_structural   Sb6Ge2
_chemical_formula_sum   'Ge2 Sb6'
_cell_volume   210.35350615
loop_
 _symmetry_equiv_pos_site_id
 _symmetry_equiv_pos_as_xyz
  1  'x, y, z'
loop_
 _atom_type_symbol
  Ge
  Sb
loop_
 _atom_site_type_symbol
 _atom_site_label
 _atom_site_symmetry_multiplicity
 _atom_site_fract_x
 _atom_site_fract_y
 _atom_site_fract_z
 _atom_site_occupancy
  Ge  Ge0  1  0.62344431  0.37655569  0.75000000  1
  Ge  Ge1  1  0.37655569  0.62344431  0.25000000  1
  Sb  Sb0  1  0.18561466  0.81438534  0.75000000  1
  Sb  Sb1  1  0.81438534  0.18561466  0.25000000  1
  Sb  Sb2  1  0.66514083  0.84317788  0.75000000  1
  Sb  Sb3  1  0.33485917  0.15682212  0.25000000  1
  Sb  Sb4  1  0.84317788  0.66514083  0.25000000  1
  Sb  Sb5  1  0.15682212  0.33485917  0.75000000  1
