# generated using pymatgen
data_2497_CuTa
_symmetry_space_group_name_H-M   'P4/mmm'
_cell_length_a   2.76948836
_cell_length_b   3.91664800
_cell_length_c   3.88167000
_cell_angle_alpha   90.00000000
_cell_angle_beta   90.00000000
_cell_angle_gamma   45.00000000
_chemical_formula_structural   CuTa
_chemical_formula_sum   'Cu1 Ta1'
_cell_volume   29.77266423
loop_
 _symmetry_equiv_pos_site_id
 _symmetry_equiv_pos_as_xyz
  1  'x, y, z'
loop_
 _atom_type_symbol
  Cu
  Ta
loop_
 _atom_site_type_symbol
 _atom_site_label
 _atom_site_symmetry_multiplicity
 _atom_site_fract_x
 _atom_site_fract_y
 _atom_site_fract_z
 _atom_site_occupancy
  Cu  Cu0  1  0.00000000  0.00000000  0.00000000  1
  Ta  Ta0  1  0.00000000  0.49999896  0.49999876  1
