# generated using pymatgen
data_2499_Ca2Ta2
_symmetry_space_group_name_H-M   'I4_1/amd'
_cell_length_a   5.14290251
_cell_length_b   5.14290251
_cell_length_c   5.14290251
_cell_angle_alpha   122.12176382
_cell_angle_beta   122.12176382
_cell_angle_gamma   86.36267635
_chemical_formula_structural   Ca2Ta2
_chemical_formula_sum   'Ca2 Ta2'
_cell_volume   92.89702656
loop_
 _symmetry_equiv_pos_site_id
 _symmetry_equiv_pos_as_xyz
  1  'x, y, z'
loop_
 _atom_type_symbol
  Ca
  Ta
loop_
 _atom_site_type_symbol
 _atom_site_label
 _atom_site_symmetry_multiplicity
 _atom_site_fract_x
 _atom_site_fract_y
 _atom_site_fract_z
 _atom_site_occupancy
  Ca  Ca0  1  0.00000000  0.00000000  0.00000000  1
  Ca  Ca1  1  0.25000000  0.75000000  0.50000000  1
  Ta  Ta0  1  0.50000000  0.50000000  0.00000000  1
  Ta  Ta1  1  0.75000000  0.25000000  0.50000000  1
