# generated using pymatgen
data_2501_Ta12V4
_symmetry_space_group_name_H-M   'Pnma'
_cell_length_a   5.59918745
_cell_length_b   9.06315837
_cell_length_c   5.50498324
_cell_angle_alpha   90.00000000
_cell_angle_beta   90.00000000
_cell_angle_gamma   90.00000000
_chemical_formula_structural   Ta12V4
_chemical_formula_sum   'Ta12 V4'
_cell_volume   279.35765542
loop_
 _symmetry_equiv_pos_site_id
 _symmetry_equiv_pos_as_xyz
  1  'x, y, z'
loop_
 _atom_type_symbol
  Ta
  V
loop_
 _atom_site_type_symbol
 _atom_site_label
 _atom_site_symmetry_multiplicity
 _atom_site_fract_x
 _atom_site_fract_y
 _atom_site_fract_z
 _atom_site_occupancy
  Ta  Ta0  1  0.01618120  0.25000000  0.86752997  1
  Ta  Ta1  1  0.23306753  0.02315447  0.36905726  1
  Ta  Ta2  1  0.23306753  0.47684553  0.36905726  1
  Ta  Ta3  1  0.26693247  0.52315447  0.86905726  1
  Ta  Ta4  1  0.26693247  0.97684553  0.86905726  1
  Ta  Ta5  1  0.48381880  0.75000000  0.36752997  1
  Ta  Ta6  1  0.51618120  0.25000000  0.63247003  1
  Ta  Ta7  1  0.73306753  0.02315447  0.13094274  1
  Ta  Ta8  1  0.73306753  0.47684553  0.13094274  1
  Ta  Ta9  1  0.76693247  0.52315447  0.63094274  1
  Ta  Ta10  1  0.76693247  0.97684553  0.63094274  1
  Ta  Ta11  1  0.98381880  0.75000000  0.13247003  1
  V  V0  1  0.05645685  0.75000000  0.63214956  1
  V  V1  1  0.44354315  0.25000000  0.13214956  1
  V  V2  1  0.55645685  0.75000000  0.86785044  1
  V  V3  1  0.94354315  0.25000000  0.36785044  1
