# generated using pymatgen
data_2503_Sn4W2
_symmetry_space_group_name_H-M   'I4_1/amd'
_cell_length_a   11.39966349
_cell_length_b   11.39966349
_cell_length_c   11.39966349
_cell_angle_alpha   162.72626344
_cell_angle_beta   162.69540448
_cell_angle_gamma   24.54518415
_chemical_formula_structural   Sn4W2
_chemical_formula_sum   'Sn4 W2'
_cell_volume   130.80994126
loop_
 _symmetry_equiv_pos_site_id
 _symmetry_equiv_pos_as_xyz
  1  'x, y, z'
loop_
 _atom_type_symbol
  Sn
  W
loop_
 _atom_site_type_symbol
 _atom_site_label
 _atom_site_symmetry_multiplicity
 _atom_site_fract_x
 _atom_site_fract_y
 _atom_site_fract_z
 _atom_site_occupancy
  Sn  Sn0  1  0.69369466  0.94369466  0.75000000  1
  Sn  Sn1  1  0.30630534  0.05630534  0.25000000  1
  Sn  Sn2  1  0.55665637  0.80665637  0.75000000  1
  Sn  Sn3  1  0.44334363  0.19334363  0.25000000  1
  W  W0  1  0.12544942  0.37544942  0.75000000  1
  W  W1  1  0.87455058  0.62455058  0.25000000  1
