# generated using pymatgen
data_2511_Al2V6
_symmetry_space_group_name_H-M   'Pm -3 n'
_cell_length_a   4.78660900
_cell_length_b   4.78660900
_cell_length_c   4.78660900
_cell_angle_alpha   90.00000000
_cell_angle_beta   90.00000000
_cell_angle_gamma   90.00000000
_chemical_formula_structural   Al2V6
_chemical_formula_sum   'Al2 V6'
_cell_volume   109.66899387
loop_
 _symmetry_equiv_pos_site_id
 _symmetry_equiv_pos_as_xyz
  1  'x, y, z'
loop_
 _atom_type_symbol
  Al
  V
loop_
 _atom_site_type_symbol
 _atom_site_label
 _atom_site_symmetry_multiplicity
 _atom_site_fract_x
 _atom_site_fract_y
 _atom_site_fract_z
 _atom_site_occupancy
  Al  Al0  1  0.00000000  0.00000000  0.00000000  1
  Al  Al1  1  0.49999910  0.49999910  0.49999910  1
  V  V0  1  0.49999910  0.24999955  0.00000000  1
  V  V1  1  0.49999910  0.75000074  0.00000000  1
  V  V2  1  0.00000000  0.49999910  0.24999955  1
  V  V3  1  0.24999955  0.00000000  0.49999910  1
  V  V4  1  0.75000074  0.00000000  0.49999910  1
  V  V5  1  0.00000000  0.49999910  0.75000074  1
