# generated using pymatgen
data_2514_FePb4
_symmetry_space_group_name_H-M   'I4/mmm'
_cell_length_a   7.58314190
_cell_length_b   7.58314190
_cell_length_c   7.58314190
_cell_angle_alpha   142.31218034
_cell_angle_beta   142.31218034
_cell_angle_gamma   54.35883278
_chemical_formula_structural   FePb4
_chemical_formula_sum   'Fe1 Pb4'
_cell_volume   161.87279997
loop_
 _symmetry_equiv_pos_site_id
 _symmetry_equiv_pos_as_xyz
  1  'x, y, z'
loop_
 _atom_type_symbol
  Fe
  Pb
loop_
 _atom_site_type_symbol
 _atom_site_label
 _atom_site_symmetry_multiplicity
 _atom_site_fract_x
 _atom_site_fract_y
 _atom_site_fract_z
 _atom_site_occupancy
  Fe  Fe0  1  0.00000000  0.00000000  0.00000000  1
  Pb  Pb0  1  0.25000000  0.75000000  0.50000000  1
  Pb  Pb1  1  0.75000000  0.25000000  0.50000000  1
  Pb  Pb2  1  0.61376666  0.61376666  0.00000000  1
  Pb  Pb3  1  0.38623334  0.38623334  0.00000000  1
