# generated using pymatgen
data_2515_Ni2As2
_symmetry_space_group_name_H-M   'P4/nmm'
_cell_length_a   3.02359083
_cell_length_b   3.02359083
_cell_length_c   6.74395857
_cell_angle_alpha   90.00000000
_cell_angle_beta   90.00000000
_cell_angle_gamma   90.48749735
_chemical_formula_structural   Ni2As2
_chemical_formula_sum   'As2 Ni2'
_cell_volume   61.65172231
loop_
 _symmetry_equiv_pos_site_id
 _symmetry_equiv_pos_as_xyz
  1  'x, y, z'
loop_
 _atom_type_symbol
  As
  Ni
loop_
 _atom_site_type_symbol
 _atom_site_label
 _atom_site_symmetry_multiplicity
 _atom_site_fract_x
 _atom_site_fract_y
 _atom_site_fract_z
 _atom_site_occupancy
  As  As0  1  0.00000000  0.00000000  0.09377180  1
  As  As1  1  0.50000000  0.50000000  0.65622820  1
  Ni  Ni0  1  0.00000000  0.00000000  0.48165907  1
  Ni  Ni1  1  0.50000000  0.50000000  0.26834093  1
