# generated using pymatgen
data_2519_Cu7Pt5
_symmetry_space_group_name_H-M   'P1'
_cell_length_a   4.61603204
_cell_length_b   6.58417240
_cell_length_c   6.02682648
_cell_angle_alpha   111.35329043
_cell_angle_beta   75.28367203
_cell_angle_gamma   89.62876108
_chemical_formula_structural   Cu7Pt5
_chemical_formula_sum   'Cu7 Pt5'
_cell_volume   164.00219045
loop_
 _symmetry_equiv_pos_site_id
 _symmetry_equiv_pos_as_xyz
  1  'x, y, z'
loop_
 _atom_type_symbol
  Cu
  Pt
loop_
 _atom_site_type_symbol
 _atom_site_label
 _atom_site_symmetry_multiplicity
 _atom_site_fract_x
 _atom_site_fract_y
 _atom_site_fract_z
 _atom_site_occupancy
  Cu  Cu0  1  0.00098601  0.00311507  0.00278244  1
  Cu  Cu1  1  0.41114692  0.08454011  0.25219819  1
  Cu  Cu2  1  0.83937112  0.16776444  0.49871379  1
  Cu  Cu3  1  0.24883143  0.24713102  0.74540592  1
  Cu  Cu4  1  0.08352254  0.41185115  0.25060834  1
  Cu  Cu5  1  0.91708303  0.58043866  0.74727949  1
  Cu  Cu6  1  0.16504916  0.83850318  0.50255260  1
  Pt  Pt0  1  0.67676724  0.32757913  0.99635920  1
  Pt  Pt1  1  0.49456342  0.49043991  0.49886518  1
  Pt  Pt2  1  0.32801591  0.66848306  0.00152549  1
  Pt  Pt3  1  0.75067572  0.76025083  0.25402359  1
  Pt  Pt4  1  0.58398750  0.91990343  0.74968578  1
