# generated using pymatgen
data_2520_Pd4Sn12
_symmetry_space_group_name_H-M   'Cmce'
_cell_length_a   9.32751809
_cell_length_b   9.32751809
_cell_length_c   6.57443209
_cell_angle_alpha   90.00000000
_cell_angle_beta   90.00000000
_cell_angle_gamma   138.81731428
_chemical_formula_structural   Pd4Sn12
_chemical_formula_sum   'Pd4 Sn12'
_cell_volume   376.63545290
loop_
 _symmetry_equiv_pos_site_id
 _symmetry_equiv_pos_as_xyz
  1  'x, y, z'
loop_
 _atom_type_symbol
  Pd
  Sn
loop_
 _atom_site_type_symbol
 _atom_site_label
 _atom_site_symmetry_multiplicity
 _atom_site_fract_x
 _atom_site_fract_y
 _atom_site_fract_z
 _atom_site_occupancy
  Pd  Pd0  1  0.08538096  0.91461904  0.00000000  1
  Pd  Pd1  1  0.41461904  0.58538096  0.50000000  1
  Pd  Pd2  1  0.91461904  0.08538096  0.00000000  1
  Pd  Pd3  1  0.58538096  0.41461904  0.50000000  1
  Sn  Sn0  1  0.83901955  0.83901955  0.66118193  1
  Sn  Sn1  1  0.66098045  0.66098045  0.16118193  1
  Sn  Sn2  1  0.33901955  0.33901955  0.83881807  1
  Sn  Sn3  1  0.16098045  0.16098045  0.33881807  1
  Sn  Sn4  1  0.83855610  0.50240662  0.82996578  1
  Sn  Sn5  1  0.66144390  0.99759338  0.32996578  1
  Sn  Sn6  1  0.00240662  0.33855610  0.67003422  1
  Sn  Sn7  1  0.49759338  0.16144390  0.17003422  1
  Sn  Sn8  1  0.16144390  0.49759338  0.17003422  1
  Sn  Sn9  1  0.33855610  0.00240662  0.67003422  1
  Sn  Sn10  1  0.99759338  0.66144390  0.32996578  1
  Sn  Sn11  1  0.50240662  0.83855610  0.82996578  1
