# generated using pymatgen
data_2522_Sb6Ge2
_symmetry_space_group_name_H-M   'Cmcm'
_cell_length_a   8.07024893
_cell_length_b   8.07024893
_cell_length_c   4.24601112
_cell_angle_alpha   90.00000000
_cell_angle_beta   90.00000000
_cell_angle_gamma   117.83193558
_chemical_formula_structural   Sb6Ge2
_chemical_formula_sum   'Ge2 Sb6'
_cell_volume   244.54842474
loop_
 _symmetry_equiv_pos_site_id
 _symmetry_equiv_pos_as_xyz
  1  'x, y, z'
loop_
 _atom_type_symbol
  Ge
  Sb
loop_
 _atom_site_type_symbol
 _atom_site_label
 _atom_site_symmetry_multiplicity
 _atom_site_fract_x
 _atom_site_fract_y
 _atom_site_fract_z
 _atom_site_occupancy
  Ge  Ge0  1  0.44583199  0.55416801  0.25000000  1
  Ge  Ge1  1  0.55416801  0.44583199  0.75000000  1
  Sb  Sb0  1  0.91891557  0.08108443  0.75000000  1
  Sb  Sb1  1  0.08108443  0.91891557  0.25000000  1
  Sb  Sb2  1  0.94511146  0.60269319  0.75000000  1
  Sb  Sb3  1  0.05488854  0.39730681  0.25000000  1
  Sb  Sb4  1  0.39730681  0.05488854  0.75000000  1
  Sb  Sb5  1  0.60269319  0.94511146  0.25000000  1
