# generated using pymatgen
data_2530_Ni4Rh2
_symmetry_space_group_name_H-M   'Cmcm'
_cell_length_a   2.86505751
_cell_length_b   4.09741822
_cell_length_c   6.52463676
_cell_angle_alpha   71.69979284
_cell_angle_beta   90.00000000
_cell_angle_gamma   90.00000000
_chemical_formula_structural   Ni4Rh2
_chemical_formula_sum   'Ni4 Rh2'
_cell_volume   72.72108324
loop_
 _symmetry_equiv_pos_site_id
 _symmetry_equiv_pos_as_xyz
  1  'x, y, z'
loop_
 _atom_type_symbol
  Ni
  Rh
loop_
 _atom_site_type_symbol
 _atom_site_label
 _atom_site_symmetry_multiplicity
 _atom_site_fract_x
 _atom_site_fract_y
 _atom_site_fract_z
 _atom_site_occupancy
  Ni  Ni0  1  0.00000000  0.98414392  0.03171215  1
  Ni  Ni1  1  0.50000000  0.82624202  0.34751597  1
  Ni  Ni2  1  0.00000000  0.67375798  0.65248403  1
  Ni  Ni3  1  0.50000000  0.51585608  0.96828785  1
  Rh  Rh0  1  0.00000000  0.34417163  0.31165673  1
  Rh  Rh1  1  0.50000000  0.15582837  0.68834327  1
