# generated using pymatgen
data_2531_RbSn
_symmetry_space_group_name_H-M   'P-6m2'
_cell_length_a   3.68791679
_cell_length_b   3.68773079
_cell_length_c   6.27874400
_cell_angle_alpha   90.00000000
_cell_angle_beta   90.00000000
_cell_angle_gamma   120.00167732
_chemical_formula_structural   RbSn
_chemical_formula_sum   'Rb1 Sn1'
_cell_volume   73.94969561
loop_
 _symmetry_equiv_pos_site_id
 _symmetry_equiv_pos_as_xyz
  1  'x, y, z'
loop_
 _atom_type_symbol
  Rb
  Sn
loop_
 _atom_site_type_symbol
 _atom_site_label
 _atom_site_symmetry_multiplicity
 _atom_site_fract_x
 _atom_site_fract_y
 _atom_site_fract_z
 _atom_site_occupancy
  Rb  Rb0  1  0.66666801  0.33333419  0.74999938  1
  Sn  Sn0  1  0.33333278  0.66666557  0.24999979  1
