# generated using pymatgen
data_2537_Nb10P6
_symmetry_space_group_name_H-M   'I4/mcm'
_cell_length_a   7.36577742
_cell_length_b   7.36576609
_cell_length_c   7.36579976
_cell_angle_alpha   97.00316588
_cell_angle_beta   97.00324945
_cell_angle_gamma   139.12588626
_chemical_formula_structural   Nb10P6
_chemical_formula_sum   'Nb10 P6'
_cell_volume   245.05590174
loop_
 _symmetry_equiv_pos_site_id
 _symmetry_equiv_pos_as_xyz
  1  'x, y, z'
loop_
 _atom_type_symbol
  Nb
  P
loop_
 _atom_site_type_symbol
 _atom_site_label
 _atom_site_symmetry_multiplicity
 _atom_site_fract_x
 _atom_site_fract_y
 _atom_site_fract_z
 _atom_site_occupancy
  Nb  Nb0  1  0.24938308  0.74977669  0.50000035  1
  Nb  Nb1  1  0.74938412  0.24977870  0.50000053  1
  Nb  Nb2  1  0.78242032  0.07742264  0.85964696  1
  Nb  Nb3  1  0.21748520  0.92311529  0.14040643  1
  Nb  Nb4  1  0.71738164  0.57745304  0.29474125  1
  Nb  Nb5  1  0.28231938  0.42314769  0.70536984  1
  Nb  Nb6  1  0.57707859  0.28270871  0.85959311  1
  Nb  Nb7  1  0.42277266  0.71777473  0.14035208  1
  Nb  Nb8  1  0.07694957  0.21777836  0.29463080  1
  Nb  Nb9  1  0.92264059  0.78271226  0.70525911  1
  P  P0  1  0.74982341  0.75005121  0.00000008  1
  P  P1  1  0.24982307  0.25005087  0.99999917  1
  P  P2  1  0.33573548  0.16413768  0.50000030  1
  P  P3  1  0.66345598  0.83640950  0.50000030  1
  P  P4  1  0.16220107  0.66270221  0.82772163  1
  P  P5  1  0.83447919  0.33498041  0.17227807  1
