# generated using pymatgen
data_2539_Nb2V
_symmetry_space_group_name_H-M   'I4/mmm'
_cell_length_a   3.19359287
_cell_length_b   5.33897512
_cell_length_c   6.41010877
_cell_angle_alpha   72.96454203
_cell_angle_beta   90.00000000
_cell_angle_gamma   72.59746858
_chemical_formula_structural   Nb2V
_chemical_formula_sum   'Nb4 V2'
_cell_volume   99.25595727
loop_
 _symmetry_equiv_pos_site_id
 _symmetry_equiv_pos_as_xyz
  1  'x, y, z'
loop_
 _atom_type_symbol
  Nb
  V
loop_
 _atom_site_type_symbol
 _atom_site_label
 _atom_site_symmetry_multiplicity
 _atom_site_fract_x
 _atom_site_fract_y
 _atom_site_fract_z
 _atom_site_occupancy
  Nb  Nb0  1  0.96579032  0.06841937  0.94116216  1
  Nb  Nb1  1  0.64532079  0.70935841  0.78106006  1
  Nb  Nb2  1  0.96639528  0.06720944  0.44143783  1
  Nb  Nb3  1  0.64471583  0.71056834  0.28078439  1
  V  V0  1  0.30674152  0.38651695  0.61173540  1
  V  V1  1  0.30436959  0.39126083  0.11048682  1
