# generated using pymatgen
data_2542_Ir2Ta
_symmetry_space_group_name_H-M   'Immm'
_cell_length_a   2.80727574
_cell_length_b   8.55689847
_cell_length_c   3.90815792
_cell_angle_alpha   90.00000000
_cell_angle_beta   90.00000000
_cell_angle_gamma   90.00000000
_chemical_formula_structural   Ir2Ta
_chemical_formula_sum   'Ir4 Ta2'
_cell_volume   93.88010266
loop_
 _symmetry_equiv_pos_site_id
 _symmetry_equiv_pos_as_xyz
  1  'x, y, z'
loop_
 _atom_type_symbol
  Ir
  Ta
loop_
 _atom_site_type_symbol
 _atom_site_label
 _atom_site_symmetry_multiplicity
 _atom_site_fract_x
 _atom_site_fract_y
 _atom_site_fract_z
 _atom_site_occupancy
  Ir  Ir0  1  0.00032819  0.33255005  0.00000000  1
  Ir  Ir1  1  0.49967181  0.83255005  0.50000000  1
  Ir  Ir2  1  0.50032819  0.16744995  0.50000000  1
  Ir  Ir3  1  0.99967181  0.66744995  0.00000000  1
  Ta  Ta0  1  0.00000000  0.00000000  0.00000000  1
  Ta  Ta1  1  0.50000000  0.50000000  0.50000000  1
