# generated using pymatgen
data_2546_Pd6Rh10
_symmetry_space_group_name_H-M   'I4/mcm'
_cell_length_a   4.95807900
_cell_length_b   7.45124282
_cell_length_c   7.45243881
_cell_angle_alpha   96.35213504
_cell_angle_beta   70.57659166
_cell_angle_gamma   109.43282644
_chemical_formula_structural   Pd6Rh10
_chemical_formula_sum   'Pd6 Rh10'
_cell_volume   244.86053755
loop_
 _symmetry_equiv_pos_site_id
 _symmetry_equiv_pos_as_xyz
  1  'x, y, z'
loop_
 _atom_type_symbol
  Pd
  Rh
loop_
 _atom_site_type_symbol
 _atom_site_label
 _atom_site_symmetry_multiplicity
 _atom_site_fract_x
 _atom_site_fract_y
 _atom_site_fract_z
 _atom_site_occupancy
  Pd  Pd0  1  0.81995215  0.13996187  0.50054475  1
  Pd  Pd1  1  0.25011742  0.00003712  0.00017732  1
  Pd  Pd2  1  0.67975672  0.50000000  0.14052909  1
  Pd  Pd3  1  0.31997261  0.50000000  0.86075916  1
  Pd  Pd4  1  0.75008029  0.99996288  0.00017732  1
  Pd  Pd5  1  0.17999028  0.86003813  0.50054475  1
  Rh  Rh0  1  0.93403681  0.69070606  0.82348981  1
  Rh  Rh1  1  0.75707646  0.82321995  0.30941657  1
  Rh  Rh2  1  0.24994930  0.50000000  0.50056119  1
  Rh  Rh3  1  0.74333075  0.30929394  0.82348981  1
  Rh  Rh4  1  0.56614727  0.82281567  0.69102974  1
  Rh  Rh5  1  0.43385651  0.17678005  0.30941657  1
  Rh  Rh6  1  0.25664172  0.69089227  0.17754563  1
  Rh  Rh7  1  0.75001067  0.50000000  0.50040958  1
  Rh  Rh8  1  0.24333159  0.17718433  0.69102974  1
  Rh  Rh9  1  0.06574945  0.30910773  0.17754563  1
