# generated using pymatgen
data_2547_K8Sn4
_symmetry_space_group_name_H-M   'Pnma'
_cell_length_a   6.24710934
_cell_length_b   5.72555692
_cell_length_c   13.18588251
_cell_angle_alpha   90.00000000
_cell_angle_beta   90.00000000
_cell_angle_gamma   90.00000000
_chemical_formula_structural   K8Sn4
_chemical_formula_sum   'K8 Sn4'
_cell_volume   471.63502055
loop_
 _symmetry_equiv_pos_site_id
 _symmetry_equiv_pos_as_xyz
  1  'x, y, z'
loop_
 _atom_type_symbol
  K
  Sn
loop_
 _atom_site_type_symbol
 _atom_site_label
 _atom_site_symmetry_multiplicity
 _atom_site_fract_x
 _atom_site_fract_y
 _atom_site_fract_z
 _atom_site_occupancy
  K  K0  1  0.25000000  0.18645234  0.82856430  1
  K  K1  1  0.75000000  0.31354766  0.32856430  1
  K  K2  1  0.25000000  0.68645234  0.67143570  1
  K  K3  1  0.75000000  0.81354766  0.17143570  1
  K  K4  1  0.25000000  0.22439491  0.47873150  1
  K  K5  1  0.75000000  0.27560509  0.97873150  1
  K  K6  1  0.25000000  0.72439491  0.02126850  1
  K  K7  1  0.75000000  0.77560509  0.52126850  1
  Sn  Sn0  1  0.25000000  0.73209429  0.31365934  1
  Sn  Sn1  1  0.75000000  0.76790571  0.81365934  1
  Sn  Sn2  1  0.25000000  0.23209429  0.18634066  1
  Sn  Sn3  1  0.75000000  0.26790571  0.68634066  1
