# generated using pymatgen
data_2548_K4As5
_symmetry_space_group_name_H-M   'I4/mmm'
_cell_length_a   10.05502559
_cell_length_b   10.05502559
_cell_length_c   10.05502559
_cell_angle_alpha   92.00023165
_cell_angle_beta   92.00023165
_cell_angle_gamma   158.46490851
_chemical_formula_structural   K4As5
_chemical_formula_sum   'As5 K4'
_cell_volume   366.59368679
loop_
 _symmetry_equiv_pos_site_id
 _symmetry_equiv_pos_as_xyz
  1  'x, y, z'
loop_
 _atom_type_symbol
  As
  K
loop_
 _atom_site_type_symbol
 _atom_site_label
 _atom_site_symmetry_multiplicity
 _atom_site_fract_x
 _atom_site_fract_y
 _atom_site_fract_z
 _atom_site_occupancy
  As  As0  1  0.00000000  0.00000000  0.00000000  1
  As  As1  1  0.70974540  0.29025460  0.00000000  1
  As  As2  1  0.29025460  0.70974540  0.00000000  1
  As  As3  1  0.29025460  0.29025460  0.58050919  1
  As  As4  1  0.70974540  0.70974540  0.41949081  1
  K  K0  1  0.77456361  1.00000000  0.77456361  1
  K  K1  1  0.22543639  1.00000000  0.22543639  1
  K  K2  1  0.00000000  0.22543639  0.22543639  1
  K  K3  1  0.00000000  0.77456361  0.77456361  1
