# generated using pymatgen
data_2549_Ag4Ge4
_symmetry_space_group_name_H-M   'Pnma'
_cell_length_a   4.17738720
_cell_length_b   5.16057112
_cell_length_c   7.46254248
_cell_angle_alpha   90.00000000
_cell_angle_beta   90.00000000
_cell_angle_gamma   90.00000000
_chemical_formula_structural   Ag4Ge4
_chemical_formula_sum   'Ag4 Ge4'
_cell_volume   160.87527994
loop_
 _symmetry_equiv_pos_site_id
 _symmetry_equiv_pos_as_xyz
  1  'x, y, z'
loop_
 _atom_type_symbol
  Ag
  Ge
loop_
 _atom_site_type_symbol
 _atom_site_label
 _atom_site_symmetry_multiplicity
 _atom_site_fract_x
 _atom_site_fract_y
 _atom_site_fract_z
 _atom_site_occupancy
  Ag  Ag0  1  0.75000000  0.88392278  0.17923988  1
  Ag  Ag1  1  0.25000000  0.38392278  0.32076012  1
  Ag  Ag2  1  0.75000000  0.61607722  0.67923988  1
  Ag  Ag3  1  0.25000000  0.11607722  0.82076012  1
  Ge  Ge0  1  0.75000000  0.35213754  0.03141536  1
  Ge  Ge1  1  0.25000000  0.85213754  0.46858464  1
  Ge  Ge2  1  0.75000000  0.14786246  0.53141536  1
  Ge  Ge3  1  0.25000000  0.64786246  0.96858464  1
