# generated using pymatgen
data_2552_InNp
_symmetry_space_group_name_H-M   'R -3 m'
_cell_length_a   5.87275876
_cell_length_b   5.87275876
_cell_length_c   5.87275845
_cell_angle_alpha   30.01964072
_cell_angle_beta   30.01964072
_cell_angle_gamma   30.01964717
_chemical_formula_structural   InNp
_chemical_formula_sum   'In1 Np1'
_cell_volume   44.90777327
loop_
 _symmetry_equiv_pos_site_id
 _symmetry_equiv_pos_as_xyz
  1  'x, y, z'
loop_
 _atom_type_symbol
  In
  Np
loop_
 _atom_site_type_symbol
 _atom_site_label
 _atom_site_symmetry_multiplicity
 _atom_site_fract_x
 _atom_site_fract_y
 _atom_site_fract_z
 _atom_site_occupancy
  In  In0  1  0.00000000  0.00000000  0.00000000  1
  Np  Np0  1  0.50000000  0.50000000  0.50000000  1
