# generated using pymatgen
data_2563_Ag2Ca
_symmetry_space_group_name_H-M   'I4/mmm'
_cell_length_a   5.55964214
_cell_length_b   5.55964214
_cell_length_c   5.55964214
_cell_angle_alpha   140.75498229
_cell_angle_beta   140.75498229
_cell_angle_gamma   56.70873979
_chemical_formula_structural   Ag2Ca
_chemical_formula_sum   'Ag2 Ca1'
_cell_volume   68.22034054
loop_
 _symmetry_equiv_pos_site_id
 _symmetry_equiv_pos_as_xyz
  1  'x, y, z'
loop_
 _atom_type_symbol
  Ag
  Ca
loop_
 _atom_site_type_symbol
 _atom_site_label
 _atom_site_symmetry_multiplicity
 _atom_site_fract_x
 _atom_site_fract_y
 _atom_site_fract_z
 _atom_site_occupancy
  Ag  Ag0  1  0.01036994  0.01036994  0.00000000  1
  Ag  Ag1  1  0.65629673  0.65629673  0.00000000  1
  Ca  Ca0  1  0.33333333  0.33333333  0.00000000  1
