# generated using pymatgen
data_2567_BaFe4
_symmetry_space_group_name_H-M   'I4/m'
_cell_length_a   5.82807142
_cell_length_b   5.82807142
_cell_length_c   5.82807142
_cell_angle_alpha   94.15705481
_cell_angle_beta   94.15705481
_cell_angle_gamma   148.76179974
_chemical_formula_structural   BaFe4
_chemical_formula_sum   'Ba1 Fe4'
_cell_volume   98.86985454
loop_
 _symmetry_equiv_pos_site_id
 _symmetry_equiv_pos_as_xyz
  1  'x, y, z'
loop_
 _atom_type_symbol
  Ba
  Fe
loop_
 _atom_site_type_symbol
 _atom_site_label
 _atom_site_symmetry_multiplicity
 _atom_site_fract_x
 _atom_site_fract_y
 _atom_site_fract_z
 _atom_site_occupancy
  Ba  Ba0  1  0.00000000  0.00000000  0.00000000  1
  Fe  Fe0  1  0.88396781  0.38861443  0.27258224  1
  Fe  Fe1  1  0.38861443  0.11603219  0.50464662  1
  Fe  Fe2  1  0.11603219  0.61138557  0.72741776  1
  Fe  Fe3  1  0.61138557  0.88396781  0.49535338  1
