# generated using pymatgen
data_2568_P4As8
_symmetry_space_group_name_H-M   'Pa -3'
_cell_length_a   6.20723121
_cell_length_b   6.20723121
_cell_length_c   6.20723121
_cell_angle_alpha   90.00000000
_cell_angle_beta   90.00000000
_cell_angle_gamma   90.00000000
_chemical_formula_structural   P4As8
_chemical_formula_sum   'As8 P4'
_cell_volume   239.16287612
loop_
 _symmetry_equiv_pos_site_id
 _symmetry_equiv_pos_as_xyz
  1  'x, y, z'
loop_
 _atom_type_symbol
  As
  P
loop_
 _atom_site_type_symbol
 _atom_site_label
 _atom_site_symmetry_multiplicity
 _atom_site_fract_x
 _atom_site_fract_y
 _atom_site_fract_z
 _atom_site_occupancy
  As  As0  1  0.61395478  0.61395478  0.38604522  1
  As  As1  1  0.38604522  0.38604522  0.61395478  1
  As  As2  1  0.11395478  0.88604522  0.61395478  1
  As  As3  1  0.88604522  0.11395478  0.38604522  1
  As  As4  1  0.38604522  0.11395478  0.11395478  1
  As  As5  1  0.61395478  0.88604522  0.88604522  1
  As  As6  1  0.88604522  0.38604522  0.88604522  1
  As  As7  1  0.11395478  0.61395478  0.11395478  1
  P  P0  1  0.00000000  0.00000000  0.00000000  1
  P  P1  1  0.50000000  0.50000000  0.00000000  1
  P  P2  1  0.50000000  0.00000000  0.50000000  1
  P  P3  1  0.00000000  0.50000000  0.50000000  1
