# generated using pymatgen
data_2570_Ba2Cu
_symmetry_space_group_name_H-M   'I4/mmm'
_cell_length_a   7.95654582
_cell_length_b   7.95654582
_cell_length_c   7.95654582
_cell_angle_alpha   150.73691952
_cell_angle_beta   150.73691952
_cell_angle_gamma   41.86074984
_chemical_formula_structural   Ba2Cu
_chemical_formula_sum   'Ba2 Cu1'
_cell_volume   120.07740852
loop_
 _symmetry_equiv_pos_site_id
 _symmetry_equiv_pos_as_xyz
  1  'x, y, z'
loop_
 _atom_type_symbol
  Ba
  Cu
loop_
 _atom_site_type_symbol
 _atom_site_label
 _atom_site_symmetry_multiplicity
 _atom_site_fract_x
 _atom_site_fract_y
 _atom_site_fract_z
 _atom_site_occupancy
  Ba  Ba0  1  0.87431781  0.87431781  0.00000000  1
  Ba  Ba1  1  0.12568219  0.12568219  0.00000000  1
  Cu  Cu0  1  0.50000000  0.50000000  0.00000000  1
