# generated using pymatgen
data_2574_Cr6Ta2
_symmetry_space_group_name_H-M   'Cmcm'
_cell_length_a   5.19025769
_cell_length_b   5.19025769
_cell_length_c   4.18808072
_cell_angle_alpha   90.00000000
_cell_angle_beta   90.00000000
_cell_angle_gamma   70.22601370
_chemical_formula_structural   Cr6Ta2
_chemical_formula_sum   'Cr6 Ta2'
_cell_volume   106.16916825
loop_
 _symmetry_equiv_pos_site_id
 _symmetry_equiv_pos_as_xyz
  1  'x, y, z'
loop_
 _atom_type_symbol
  Cr
  Ta
loop_
 _atom_site_type_symbol
 _atom_site_label
 _atom_site_symmetry_multiplicity
 _atom_site_fract_x
 _atom_site_fract_y
 _atom_site_fract_z
 _atom_site_occupancy
  Cr  Cr0  1  0.87849275  0.87849275  0.25000000  1
  Cr  Cr1  1  0.12150725  0.12150725  0.75000000  1
  Cr  Cr2  1  0.36327863  0.88135949  0.25000000  1
  Cr  Cr3  1  0.63672137  0.11864051  0.75000000  1
  Cr  Cr4  1  0.11864051  0.63672137  0.75000000  1
  Cr  Cr5  1  0.88135949  0.36327863  0.25000000  1
  Ta  Ta0  1  0.37199505  0.37199505  0.25000000  1
  Ta  Ta1  1  0.62800495  0.62800495  0.75000000  1
