# generated using pymatgen
data_2575_AlCu2
_symmetry_space_group_name_H-M   'Immm'
_cell_length_a   3.26028116
_cell_length_b   2.88629650
_cell_length_c   8.12379168
_cell_angle_alpha   90.00000000
_cell_angle_beta   90.00000000
_cell_angle_gamma   90.00000000
_chemical_formula_structural   AlCu2
_chemical_formula_sum   'Al2 Cu4'
_cell_volume   76.44600161
loop_
 _symmetry_equiv_pos_site_id
 _symmetry_equiv_pos_as_xyz
  1  'x, y, z'
loop_
 _atom_type_symbol
  Al
  Cu
loop_
 _atom_site_type_symbol
 _atom_site_label
 _atom_site_symmetry_multiplicity
 _atom_site_fract_x
 _atom_site_fract_y
 _atom_site_fract_z
 _atom_site_occupancy
  Al  Al0  1  0.00000000  0.00000000  0.00000000  1
  Al  Al1  1  0.50000000  0.50000000  0.50000000  1
  Cu  Cu0  1  0.00000000  0.00394945  0.66654882  1
  Cu  Cu1  1  0.00000000  0.99605055  0.33345118  1
  Cu  Cu2  1  0.50000000  0.50394945  0.83345118  1
  Cu  Cu3  1  0.50000000  0.49605055  0.16654882  1
