# generated using pymatgen
data_2576_Ni5U
_symmetry_space_group_name_H-M   'F-43m'
_cell_length_a   4.78171519
_cell_length_b   4.78171519
_cell_length_c   4.78171519
_cell_angle_alpha   120.00000000
_cell_angle_beta   90.00000000
_cell_angle_gamma   120.00000000
_chemical_formula_structural   Ni5U
_chemical_formula_sum   'Ni5 U1'
_cell_volume   77.31007924
loop_
 _symmetry_equiv_pos_site_id
 _symmetry_equiv_pos_as_xyz
  1  'x, y, z'
loop_
 _atom_type_symbol
  Ni
  U
loop_
 _atom_site_type_symbol
 _atom_site_label
 _atom_site_symmetry_multiplicity
 _atom_site_fract_x
 _atom_site_fract_y
 _atom_site_fract_z
 _atom_site_occupancy
  Ni  Ni0  1  0.37598904  0.75197808  0.12796712  1
  Ni  Ni1  1  0.75000000  0.50000000  0.25000000  1
  Ni  Ni2  1  0.37598904  0.24802192  0.62401096  1
  Ni  Ni3  1  0.87203288  0.24802192  0.62401096  1
  Ni  Ni4  1  0.37598904  0.75197808  0.62401096  1
  U  U0  1  0.00000000  0.00000000  0.00000000  1
