# generated using pymatgen
data_2577_Cr5Na
_symmetry_space_group_name_H-M   'Amm2'
_cell_length_a   8.61129776
_cell_length_b   8.61129776
_cell_length_c   4.23924970
_cell_angle_alpha   90.00000000
_cell_angle_beta   90.00000000
_cell_angle_gamma   164.35959466
_chemical_formula_structural   Cr5Na
_chemical_formula_sum   'Cr5 Na1'
_cell_volume   84.75092740
loop_
 _symmetry_equiv_pos_site_id
 _symmetry_equiv_pos_as_xyz
  1  'x, y, z'
loop_
 _atom_type_symbol
  Cr
  Na
loop_
 _atom_site_type_symbol
 _atom_site_label
 _atom_site_symmetry_multiplicity
 _atom_site_fract_x
 _atom_site_fract_y
 _atom_site_fract_z
 _atom_site_occupancy
  Cr  Cr0  1  0.97646401  0.02353599  0.00000000  1
  Cr  Cr1  1  0.34564460  0.65435540  0.00000000  1
  Cr  Cr2  1  0.71542779  0.28457221  0.00000000  1
  Cr  Cr3  1  0.42222149  0.57777851  0.50000000  1
  Cr  Cr4  1  0.77499498  0.22500502  0.50000000  1
  Na  Na0  1  0.09858047  0.90141953  0.50000000  1
