# generated using pymatgen
data_2578_Mo2Ta
_symmetry_space_group_name_H-M   'I4/mmm'
_cell_length_a   5.33906822
_cell_length_b   5.33906822
_cell_length_c   5.33906822
_cell_angle_alpha   145.11427725
_cell_angle_beta   145.11427725
_cell_angle_gamma   50.16425807
_chemical_formula_structural   Mo2Ta
_chemical_formula_sum   'Mo2 Ta1'
_cell_volume   49.54192147
loop_
 _symmetry_equiv_pos_site_id
 _symmetry_equiv_pos_as_xyz
  1  'x, y, z'
loop_
 _atom_type_symbol
  Mo
  Ta
loop_
 _atom_site_type_symbol
 _atom_site_label
 _atom_site_symmetry_multiplicity
 _atom_site_fract_x
 _atom_site_fract_y
 _atom_site_fract_z
 _atom_site_occupancy
  Mo  Mo0  1  0.00373659  0.00373659  0.00000000  1
  Mo  Mo1  1  0.66293008  0.66293008  0.00000000  1
  Ta  Ta0  1  0.33333333  0.33333333  0.00000000  1
