# generated using pymatgen
data_257_AcMn
_symmetry_space_group_name_H-M   'P4/mmm'
_cell_length_a   3.78349555
_cell_length_b   5.35066958
_cell_length_c   3.89918838
_cell_angle_alpha   90.00000000
_cell_angle_beta   90.00000000
_cell_angle_gamma   45.00001221
_chemical_formula_structural   AcMn
_chemical_formula_sum   'Ac1 Mn1'
_cell_volume   55.81625224
loop_
 _symmetry_equiv_pos_site_id
 _symmetry_equiv_pos_as_xyz
  1  'x, y, z'
loop_
 _atom_type_symbol
  Ac
  Mn
loop_
 _atom_site_type_symbol
 _atom_site_label
 _atom_site_symmetry_multiplicity
 _atom_site_fract_x
 _atom_site_fract_y
 _atom_site_fract_z
 _atom_site_occupancy
  Ac  Ac0  1  0.00000000  0.00000000  0.00000000  1
  Mn  Mn0  1  0.99999998  0.50000024  0.50000040  1
