# generated using pymatgen
data_2581_CuGa
_symmetry_space_group_name_H-M   'F-43m'
_cell_length_a   3.90810087
_cell_length_b   3.90810087
_cell_length_c   3.90810087
_cell_angle_alpha   60.00000000
_cell_angle_beta   60.00000000
_cell_angle_gamma   60.00000000
_chemical_formula_structural   CuGa
_chemical_formula_sum   'Cu1 Ga1'
_cell_volume   42.20678745
loop_
 _symmetry_equiv_pos_site_id
 _symmetry_equiv_pos_as_xyz
  1  'x, y, z'
loop_
 _atom_type_symbol
  Cu
  Ga
loop_
 _atom_site_type_symbol
 _atom_site_label
 _atom_site_symmetry_multiplicity
 _atom_site_fract_x
 _atom_site_fract_y
 _atom_site_fract_z
 _atom_site_occupancy
  Cu  Cu0  1  0.00000000  0.00000000  0.00000000  1
  Ga  Ga0  1  0.24999999  0.24999999  0.24999999  1
