# generated using pymatgen
data_2583_Pb24Sr5
_symmetry_space_group_name_H-M   'I-43m'
_cell_length_a   10.78250595
_cell_length_b   10.78250595
_cell_length_c   10.78250595
_cell_angle_alpha   109.47122063
_cell_angle_beta   109.47122063
_cell_angle_gamma   109.47122063
_chemical_formula_structural   Pb24Sr5
_chemical_formula_sum   'Pb24 Sr5'
_cell_volume   965.02203074
loop_
 _symmetry_equiv_pos_site_id
 _symmetry_equiv_pos_as_xyz
  1  'x, y, z'
loop_
 _atom_type_symbol
  Pb
  Sr
loop_
 _atom_site_type_symbol
 _atom_site_label
 _atom_site_symmetry_multiplicity
 _atom_site_fract_x
 _atom_site_fract_y
 _atom_site_fract_z
 _atom_site_occupancy
  Pb  Pb0  1  0.19144954  0.37686896  0.00000000  1
  Pb  Pb1  1  0.37686896  0.19144954  0.00000000  1
  Pb  Pb2  1  0.80855046  0.80855046  0.18541941  1
  Pb  Pb3  1  0.62313104  0.62313104  0.81458059  1
  Pb  Pb4  1  0.80855046  0.18541941  0.80855046  1
  Pb  Pb5  1  0.62313104  0.81458059  0.62313104  1
  Pb  Pb6  1  0.37686896  0.00000000  0.19144954  1
  Pb  Pb7  1  0.19144954  0.00000000  0.37686896  1
  Pb  Pb8  1  1.00000000  0.37686896  0.19144954  1
  Pb  Pb9  1  0.00000000  0.19144954  0.37686896  1
  Pb  Pb10  1  0.81458059  0.62313104  0.62313104  1
  Pb  Pb11  1  0.18541941  0.80855046  0.80855046  1
  Pb  Pb12  1  0.67629081  0.39364672  0.00000000  1
  Pb  Pb13  1  0.39364672  0.67629081  0.00000000  1
  Pb  Pb14  1  0.32370919  0.32370919  0.71735591  1
  Pb  Pb15  1  0.60635328  0.60635328  0.28264409  1
  Pb  Pb16  1  0.32370919  0.71735591  0.32370919  1
  Pb  Pb17  1  0.60635328  0.28264409  0.60635328  1
  Pb  Pb18  1  0.39364672  0.00000000  0.67629081  1
  Pb  Pb19  1  0.67629081  0.00000000  0.39364672  1
  Pb  Pb20  1  1.00000000  0.39364672  0.67629081  1
  Pb  Pb21  1  1.00000000  0.67629081  0.39364672  1
  Pb  Pb22  1  0.28264409  0.60635328  0.60635328  1
  Pb  Pb23  1  0.71735591  0.32370919  0.32370919  1
  Sr  Sr0  1  1.00000000  0.62159377  0.00000000  1
  Sr  Sr1  1  0.62159377  0.00000000  0.00000000  1
  Sr  Sr2  1  1.00000000  0.00000000  0.62159377  1
  Sr  Sr3  1  0.37840623  0.37840623  0.37840623  1
  Sr  Sr4  1  0.00000000  0.00000000  0.00000000  1
