# generated using pymatgen
data_2585_Ag4Br2
_symmetry_space_group_name_H-M   'Cmcm'
_cell_length_a   6.05795865
_cell_length_b   6.05795865
_cell_length_c   4.74207676
_cell_angle_alpha   90.00000000
_cell_angle_beta   90.00000000
_cell_angle_gamma   132.05577806
_chemical_formula_structural   Ag4Br2
_chemical_formula_sum   'Ag4 Br2'
_cell_volume   129.21519622
loop_
 _symmetry_equiv_pos_site_id
 _symmetry_equiv_pos_as_xyz
  1  'x, y, z'
loop_
 _atom_type_symbol
  Ag
  Br
loop_
 _atom_site_type_symbol
 _atom_site_label
 _atom_site_symmetry_multiplicity
 _atom_site_fract_x
 _atom_site_fract_y
 _atom_site_fract_z
 _atom_site_occupancy
  Ag  Ag0  1  0.88284364  0.53059024  0.75000000  1
  Ag  Ag1  1  0.11715636  0.46940976  0.25000000  1
  Ag  Ag2  1  0.53059024  0.88284364  0.75000000  1
  Ag  Ag3  1  0.46940976  0.11715636  0.25000000  1
  Br  Br0  1  0.24575055  0.24575055  0.75000000  1
  Br  Br1  1  0.75424945  0.75424945  0.25000000  1
