# generated using pymatgen
data_2587_Ir2V2
_symmetry_space_group_name_H-M   'I4_1/amd'
_cell_length_a   3.75837103
_cell_length_b   4.77173480
_cell_length_c   3.75837103
_cell_angle_alpha   66.80784847
_cell_angle_beta   90.00000000
_cell_angle_gamma   113.19215153
_chemical_formula_structural   Ir2V2
_chemical_formula_sum   'Ir2 V2'
_cell_volume   55.98128166
loop_
 _symmetry_equiv_pos_site_id
 _symmetry_equiv_pos_as_xyz
  1  'x, y, z'
loop_
 _atom_type_symbol
  Ir
  V
loop_
 _atom_site_type_symbol
 _atom_site_label
 _atom_site_symmetry_multiplicity
 _atom_site_fract_x
 _atom_site_fract_y
 _atom_site_fract_z
 _atom_site_occupancy
  Ir  Ir0  1  0.00000000  0.00000000  0.00000000  1
  Ir  Ir1  1  0.75000000  0.50000000  0.75000000  1
  V  V0  1  0.25000000  0.50000000  0.25000000  1
  V  V1  1  0.50000000  0.00000000  0.50000000  1
