# generated using pymatgen
data_2592_Cu8Sn4
_symmetry_space_group_name_H-M   'I4_1/amd'
_cell_length_a   12.56010013
_cell_length_b   12.56010013
_cell_length_c   12.56010013
_cell_angle_alpha   161.86135719
_cell_angle_beta   161.86135719
_cell_angle_gamma   25.76137600
_chemical_formula_structural   Cu8Sn4
_chemical_formula_sum   'Cu8 Sn4'
_cell_volume   191.97520898
loop_
 _symmetry_equiv_pos_site_id
 _symmetry_equiv_pos_as_xyz
  1  'x, y, z'
loop_
 _atom_type_symbol
  Cu
  Sn
loop_
 _atom_site_type_symbol
 _atom_site_label
 _atom_site_symmetry_multiplicity
 _atom_site_fract_x
 _atom_site_fract_y
 _atom_site_fract_z
 _atom_site_occupancy
  Cu  Cu0  1  0.75052176  0.75052176  0.00000000  1
  Cu  Cu1  1  0.24947824  0.24947824  0.00000000  1
  Cu  Cu2  1  0.00052176  0.50052176  0.50000000  1
  Cu  Cu3  1  0.49947824  0.99947824  0.50000000  1
  Cu  Cu4  1  0.57959129  0.57959130  0.00000000  1
  Cu  Cu5  1  0.42040871  0.42040870  0.00000000  1
  Cu  Cu6  1  0.82959129  0.32959130  0.50000000  1
  Cu  Cu7  1  0.67040871  0.17040870  0.50000000  1
  Sn  Sn0  1  0.92338709  0.92338710  0.00000000  1
  Sn  Sn1  1  0.07661291  0.07661290  0.00000000  1
  Sn  Sn2  1  0.17338709  0.67338710  0.50000000  1
  Sn  Sn3  1  0.32661291  0.82661290  0.50000000  1
