# generated using pymatgen
data_2602_Ba4Ta2
_symmetry_space_group_name_H-M   'Pnnm'
_cell_length_a   3.45971066
_cell_length_b   8.39033480
_cell_length_c   8.48424849
_cell_angle_alpha   90.00000000
_cell_angle_beta   90.00000000
_cell_angle_gamma   90.00000000
_chemical_formula_structural   Ba4Ta2
_chemical_formula_sum   'Ba4 Ta2'
_cell_volume   246.28187447
loop_
 _symmetry_equiv_pos_site_id
 _symmetry_equiv_pos_as_xyz
  1  'x, y, z'
loop_
 _atom_type_symbol
  Ba
  Ta
loop_
 _atom_site_type_symbol
 _atom_site_label
 _atom_site_symmetry_multiplicity
 _atom_site_fract_x
 _atom_site_fract_y
 _atom_site_fract_z
 _atom_site_occupancy
  Ba  Ba0  1  0.00000000  0.20754909  0.68169440  1
  Ba  Ba1  1  0.00000000  0.79245091  0.31830560  1
  Ba  Ba2  1  0.50000000  0.70754909  0.81830560  1
  Ba  Ba3  1  0.50000000  0.29245091  0.18169440  1
  Ta  Ta0  1  0.00000000  0.00000000  0.00000000  1
  Ta  Ta1  1  0.50000000  0.50000000  0.50000000  1
