# generated using pymatgen
data_2607_In2Sn
_symmetry_space_group_name_H-M   'I4/mmm'
_cell_length_a   6.31871248
_cell_length_b   6.31871248
_cell_length_c   6.31871248
_cell_angle_alpha   145.01561159
_cell_angle_beta   145.01561159
_cell_angle_gamma   50.31126021
_chemical_formula_structural   In2Sn
_chemical_formula_sum   'In2 Sn1'
_cell_volume   82.52350431
loop_
 _symmetry_equiv_pos_site_id
 _symmetry_equiv_pos_as_xyz
  1  'x, y, z'
loop_
 _atom_type_symbol
  In
  Sn
loop_
 _atom_site_type_symbol
 _atom_site_label
 _atom_site_symmetry_multiplicity
 _atom_site_fract_x
 _atom_site_fract_y
 _atom_site_fract_z
 _atom_site_occupancy
  In  In0  1  0.99997672  0.99997672  0.00000000  1
  In  In1  1  0.66668994  0.66668994  0.00000000  1
  Sn  Sn0  1  0.33333333  0.33333333  0.00000000  1
