# generated using pymatgen
data_2609_Au12Nb12
_symmetry_space_group_name_H-M   'Pbcm'
_cell_length_a   9.83725966
_cell_length_b   8.15597759
_cell_length_c   5.45234065
_cell_angle_alpha   90.00000000
_cell_angle_beta   90.00000000
_cell_angle_gamma   90.00000000
_chemical_formula_structural   Au12Nb12
_chemical_formula_sum   'Au12 Nb12'
_cell_volume   437.45475400
loop_
 _symmetry_equiv_pos_site_id
 _symmetry_equiv_pos_as_xyz
  1  'x, y, z'
loop_
 _atom_type_symbol
  Au
  Nb
loop_
 _atom_site_type_symbol
 _atom_site_label
 _atom_site_symmetry_multiplicity
 _atom_site_fract_x
 _atom_site_fract_y
 _atom_site_fract_z
 _atom_site_occupancy
  Au  Au0  1  0.13376899  0.89229354  0.25000000  1
  Au  Au1  1  0.86623101  0.10770646  0.75000000  1
  Au  Au2  1  0.86623101  0.39229354  0.25000000  1
  Au  Au3  1  0.13376899  0.60770646  0.75000000  1
  Au  Au4  1  0.43368432  0.45199967  0.25000000  1
  Au  Au5  1  0.56631568  0.54800033  0.75000000  1
  Au  Au6  1  0.56631568  0.95199967  0.25000000  1
  Au  Au7  1  0.43368432  0.04800033  0.75000000  1
  Au  Au8  1  0.08589294  0.25000000  0.00000000  1
  Au  Au9  1  0.91410706  0.75000000  0.50000000  1
  Au  Au10  1  0.91410706  0.75000000  0.00000000  1
  Au  Au11  1  0.08589294  0.25000000  0.50000000  1
  Nb  Nb0  1  0.16286709  0.54235764  0.25000000  1
  Nb  Nb1  1  0.83713291  0.45764236  0.75000000  1
  Nb  Nb2  1  0.83713291  0.04235764  0.25000000  1
  Nb  Nb3  1  0.16286709  0.95764236  0.75000000  1
  Nb  Nb4  1  0.33001894  0.13989462  0.25000000  1
  Nb  Nb5  1  0.66998106  0.86010538  0.75000000  1
  Nb  Nb6  1  0.66998106  0.63989462  0.25000000  1
  Nb  Nb7  1  0.33001894  0.36010538  0.75000000  1
  Nb  Nb8  1  0.62846097  0.25000000  0.00000000  1
  Nb  Nb9  1  0.37153903  0.75000000  0.50000000  1
  Nb  Nb10  1  0.37153903  0.75000000  0.00000000  1
  Nb  Nb11  1  0.62846097  0.25000000  0.50000000  1
