# generated using pymatgen
data_2618_Al6In2
_symmetry_space_group_name_H-M   'Pmmn'
_cell_length_a   4.58168332
_cell_length_b   5.82223963
_cell_length_c   5.91457604
_cell_angle_alpha   90.00000000
_cell_angle_beta   90.00000000
_cell_angle_gamma   90.00000000
_chemical_formula_structural   Al6In2
_chemical_formula_sum   'Al6 In2'
_cell_volume   157.77520883
loop_
 _symmetry_equiv_pos_site_id
 _symmetry_equiv_pos_as_xyz
  1  'x, y, z'
loop_
 _atom_type_symbol
  Al
  In
loop_
 _atom_site_type_symbol
 _atom_site_label
 _atom_site_symmetry_multiplicity
 _atom_site_fract_x
 _atom_site_fract_y
 _atom_site_fract_z
 _atom_site_occupancy
  Al  Al0  1  0.50000000  0.73582445  0.00000000  1
  Al  Al1  1  0.00000000  0.26417555  0.50000000  1
  Al  Al2  1  0.00000000  0.86322744  0.25202926  1
  Al  Al3  1  0.00000000  0.86322744  0.74797074  1
  Al  Al4  1  0.50000000  0.13677256  0.75202926  1
  Al  Al5  1  0.50000000  0.13677256  0.24797074  1
  In  In0  1  0.00000000  0.38366962  0.00000000  1
  In  In1  1  0.50000000  0.61633038  0.50000000  1
