# generated using pymatgen
data_2622_Cr2As2
_symmetry_space_group_name_H-M   'P4/nmm'
_cell_length_a   2.94445956
_cell_length_b   2.94445956
_cell_length_c   7.24545219
_cell_angle_alpha   90.00000000
_cell_angle_beta   90.00000000
_cell_angle_gamma   90.00000000
_chemical_formula_structural   Cr2As2
_chemical_formula_sum   'As2 Cr2'
_cell_volume   62.81692643
loop_
 _symmetry_equiv_pos_site_id
 _symmetry_equiv_pos_as_xyz
  1  'x, y, z'
loop_
 _atom_type_symbol
  As
  Cr
loop_
 _atom_site_type_symbol
 _atom_site_label
 _atom_site_symmetry_multiplicity
 _atom_site_fract_x
 _atom_site_fract_y
 _atom_site_fract_z
 _atom_site_occupancy
  As  As0  1  0.00000000  0.00000000  0.07750716  1
  As  As1  1  0.50000000  0.50000000  0.67249284  1
  Cr  Cr0  1  0.00000000  0.00000000  0.46052030  1
  Cr  Cr1  1  0.50000000  0.50000000  0.28947970  1
