# generated using pymatgen
data_2623_K2P
_symmetry_space_group_name_H-M   'Immm'
_cell_length_a   5.94440939
_cell_length_b   5.94440939
_cell_length_c   5.94440939
_cell_angle_alpha   144.65028985
_cell_angle_beta   131.18757295
_cell_angle_gamma   61.69518624
_chemical_formula_structural   K2P
_chemical_formula_sum   'K2 P1'
_cell_volume   90.49624717
loop_
 _symmetry_equiv_pos_site_id
 _symmetry_equiv_pos_as_xyz
  1  'x, y, z'
loop_
 _atom_type_symbol
  K
  P
loop_
 _atom_site_type_symbol
 _atom_site_label
 _atom_site_symmetry_multiplicity
 _atom_site_fract_x
 _atom_site_fract_y
 _atom_site_fract_z
 _atom_site_occupancy
  K  K0  1  0.65304410  0.65304410  1.00000000  1
  K  K1  1  0.34695590  0.34695590  1.00000000  1
  P  P0  1  0.00000000  0.00000000  0.00000000  1
