# generated using pymatgen
data_2627_Ni10Ge6
_symmetry_space_group_name_H-M   'C2'
_cell_length_a   6.36698895
_cell_length_b   6.38990006
_cell_length_c   6.38990006
_cell_angle_alpha   116.15287401
_cell_angle_beta   64.16084652
_cell_angle_gamma   115.83915348
_chemical_formula_structural   Ni10Ge6
_chemical_formula_sum   'Ge6 Ni10'
_cell_volume   200.23688260
loop_
 _symmetry_equiv_pos_site_id
 _symmetry_equiv_pos_as_xyz
  1  'x, y, z'
loop_
 _atom_type_symbol
  Ge
  Ni
loop_
 _atom_site_type_symbol
 _atom_site_label
 _atom_site_symmetry_multiplicity
 _atom_site_fract_x
 _atom_site_fract_y
 _atom_site_fract_z
 _atom_site_occupancy
  Ge  Ge0  1  0.00000000  0.02132452  0.02132452  1
  Ge  Ge1  1  0.80086465  0.50481437  0.19750816  1
  Ge  Ge2  1  0.29537778  0.63255386  0.33636446  1
  Ge  Ge3  1  0.19913535  0.19750816  0.50481437  1
  Ge  Ge4  1  0.70462222  0.33636446  0.63255386  1
  Ge  Ge5  1  0.50000000  0.80362841  0.80362841  1
  Ni  Ni0  1  0.39526437  0.25081353  0.10552169  1
  Ni  Ni1  1  0.17289664  0.83088516  0.17396188  1
  Ni  Ni2  1  0.60473563  0.10552169  0.25081353  1
  Ni  Ni3  1  0.75955976  0.92039302  0.41053696  1
  Ni  Ni4  1  0.90105629  0.73843067  0.58661906  1
  Ni  Ni5  1  0.34230817  0.00450522  0.66013904  1
  Ni  Ni6  1  0.09894371  0.58661906  0.73843067  1
  Ni  Ni7  1  0.82710336  0.17396188  0.83088516  1
  Ni  Ni8  1  0.24044024  0.41053696  0.92039302  1
  Ni  Ni9  1  0.65769183  0.66013904  0.00450522  1
