# generated using pymatgen
data_2628_Cr18Ta6
_symmetry_space_group_name_H-M   'Pmmn'
_cell_length_a   4.93029011
_cell_length_b   5.08914276
_cell_length_c   12.97904581
_cell_angle_alpha   90.00000000
_cell_angle_beta   90.00000000
_cell_angle_gamma   90.00000000
_chemical_formula_structural   Cr18Ta6
_chemical_formula_sum   'Cr18 Ta6'
_cell_volume   325.65659230
loop_
 _symmetry_equiv_pos_site_id
 _symmetry_equiv_pos_as_xyz
  1  'x, y, z'
loop_
 _atom_type_symbol
  Cr
  Ta
loop_
 _atom_site_type_symbol
 _atom_site_label
 _atom_site_symmetry_multiplicity
 _atom_site_fract_x
 _atom_site_fract_y
 _atom_site_fract_z
 _atom_site_occupancy
  Cr  Cr0  1  0.99042833  0.12840258  0.58161136  1
  Cr  Cr1  1  0.99042833  0.12840258  0.91838864  1
  Cr  Cr2  1  0.98864001  0.62980052  0.25000000  1
  Cr  Cr3  1  0.01135999  0.37019948  0.75000000  1
  Cr  Cr4  1  0.00957167  0.87159742  0.08161136  1
  Cr  Cr5  1  0.00957167  0.87159742  0.41838864  1
  Cr  Cr6  1  0.25000000  0.94454410  0.75000000  1
  Cr  Cr7  1  0.25000000  0.38881750  0.06994457  1
  Cr  Cr8  1  0.25000000  0.38881750  0.43005543  1
  Cr  Cr9  1  0.50957167  0.12840258  0.58161136  1
  Cr  Cr10  1  0.50957167  0.12840258  0.91838864  1
  Cr  Cr11  1  0.51135999  0.62980052  0.25000000  1
  Cr  Cr12  1  0.48864001  0.37019948  0.75000000  1
  Cr  Cr13  1  0.49042833  0.87159742  0.08161136  1
  Cr  Cr14  1  0.49042833  0.87159742  0.41838864  1
  Cr  Cr15  1  0.75000000  0.05545590  0.25000000  1
  Cr  Cr16  1  0.75000000  0.61118250  0.56994457  1
  Cr  Cr17  1  0.75000000  0.61118250  0.93005543  1
  Ta  Ta0  1  0.25000000  0.14749465  0.25000000  1
  Ta  Ta1  1  0.25000000  0.64284770  0.59484322  1
  Ta  Ta2  1  0.25000000  0.64284770  0.90515678  1
  Ta  Ta3  1  0.75000000  0.85250535  0.75000000  1
  Ta  Ta4  1  0.75000000  0.35715230  0.09484322  1
  Ta  Ta5  1  0.75000000  0.35715230  0.40515678  1
