# generated using pymatgen
data_2638_InBr3
_symmetry_space_group_name_H-M   'Immm'
_cell_length_a   6.69633477
_cell_length_b   6.69633477
_cell_length_c   6.69633477
_cell_angle_alpha   148.15031248
_cell_angle_beta   128.43001842
_cell_angle_gamma   61.90118222
_chemical_formula_structural   InBr3
_chemical_formula_sum   'Br3 In1'
_cell_volume   122.93989048
loop_
 _symmetry_equiv_pos_site_id
 _symmetry_equiv_pos_as_xyz
  1  'x, y, z'
loop_
 _atom_type_symbol
  Br
  In
loop_
 _atom_site_type_symbol
 _atom_site_label
 _atom_site_symmetry_multiplicity
 _atom_site_fract_x
 _atom_site_fract_y
 _atom_site_fract_z
 _atom_site_occupancy
  Br  Br0  1  0.07841728  0.07841728  1.00000000  1
  Br  Br1  1  0.75000000  0.25000000  0.50000000  1
  Br  Br2  1  0.42158272  0.42158272  1.00000000  1
  In  In0  1  0.25000000  0.75000000  0.50000000  1
