# generated using pymatgen
data_2640_Fe2W4
_symmetry_space_group_name_H-M   'I4/mcm'
_cell_length_a   4.84391316
_cell_length_b   4.86401198
_cell_length_c   4.86401198
_cell_angle_alpha   104.35553864
_cell_angle_beta   119.86340352
_cell_angle_gamma   60.13659648
_chemical_formula_structural   Fe2W4
_chemical_formula_sum   'Fe2 W4'
_cell_volume   86.18648186
loop_
 _symmetry_equiv_pos_site_id
 _symmetry_equiv_pos_as_xyz
  1  'x, y, z'
loop_
 _atom_type_symbol
  Fe
  W
loop_
 _atom_site_type_symbol
 _atom_site_label
 _atom_site_symmetry_multiplicity
 _atom_site_fract_x
 _atom_site_fract_y
 _atom_site_fract_z
 _atom_site_occupancy
  Fe  Fe0  1  0.25000000  0.00000000  0.00000000  1
  Fe  Fe1  1  0.75000000  0.00000000  0.00000000  1
  W  W0  1  0.15997167  0.18005666  0.50000000  1
  W  W1  1  0.34002833  0.50000000  0.18005666  1
  W  W2  1  0.65997167  0.50000000  0.81994334  1
  W  W3  1  0.84002833  0.81994334  0.50000000  1
