# generated using pymatgen
data_2645_KP3
_symmetry_space_group_name_H-M   'Imm2'
_cell_length_a   6.03082815
_cell_length_b   6.03082815
_cell_length_c   6.03082815
_cell_angle_alpha   153.77911018
_cell_angle_beta   103.06453292
_cell_angle_gamma   82.92631543
_chemical_formula_structural   KP3
_chemical_formula_sum   'K1 P3'
_cell_volume   92.77567508
loop_
 _symmetry_equiv_pos_site_id
 _symmetry_equiv_pos_as_xyz
  1  'x, y, z'
loop_
 _atom_type_symbol
  K
  P
loop_
 _atom_site_type_symbol
 _atom_site_label
 _atom_site_symmetry_multiplicity
 _atom_site_fract_x
 _atom_site_fract_y
 _atom_site_fract_z
 _atom_site_occupancy
  K  K0  1  0.87685485  0.00000000  0.87685485  1
  P  P0  1  0.47268902  0.50000000  0.97268902  1
  P  P1  1  0.09448574  0.35259101  0.74189473  1
  P  P2  1  0.38930372  0.64740899  0.74189473  1
