# generated using pymatgen
data_2647_KP3
_symmetry_space_group_name_H-M   'Immm'
_cell_length_a   5.76666378
_cell_length_b   5.76666378
_cell_length_c   5.76666378
_cell_angle_alpha   148.51232642
_cell_angle_beta   116.11367080
_cell_angle_gamma   72.96798683
_chemical_formula_structural   KP3
_chemical_formula_sum   'K1 P3'
_cell_volume   88.53821477
loop_
 _symmetry_equiv_pos_site_id
 _symmetry_equiv_pos_as_xyz
  1  'x, y, z'
loop_
 _atom_type_symbol
  K
  P
loop_
 _atom_site_type_symbol
 _atom_site_label
 _atom_site_symmetry_multiplicity
 _atom_site_fract_x
 _atom_site_fract_y
 _atom_site_fract_z
 _atom_site_occupancy
  K  K0  1  0.50000000  0.00000000  0.50000000  1
  P  P0  1  0.17630405  0.17630405  0.00000000  1
  P  P1  1  0.82369595  0.82369595  0.00000000  1
  P  P2  1  1.00000000  0.50000000  0.50000000  1
