# generated using pymatgen
data_2648_KP3
_symmetry_space_group_name_H-M   'Cmmm'
_cell_length_a   3.13476244
_cell_length_b   3.13476244
_cell_length_c   8.13585703
_cell_angle_alpha   90.00000000
_cell_angle_beta   90.00000000
_cell_angle_gamma   103.38933587
_chemical_formula_structural   KP3
_chemical_formula_sum   'K1 P3'
_cell_volume   77.77582351
loop_
 _symmetry_equiv_pos_site_id
 _symmetry_equiv_pos_as_xyz
  1  'x, y, z'
loop_
 _atom_type_symbol
  K
  P
loop_
 _atom_site_type_symbol
 _atom_site_label
 _atom_site_symmetry_multiplicity
 _atom_site_fract_x
 _atom_site_fract_y
 _atom_site_fract_z
 _atom_site_occupancy
  K  K0  1  0.00000000  0.00000000  0.00000000  1
  P  P0  1  0.50000000  0.50000000  0.68305737  1
  P  P1  1  0.00000000  0.00000000  0.50000000  1
  P  P2  1  0.50000000  0.50000000  0.31694263  1
