# generated using pymatgen
data_2649_Ba5Sn
_symmetry_space_group_name_H-M   'Cmmm'
_cell_length_a   9.74730496
_cell_length_b   9.74730496
_cell_length_c   5.96512354
_cell_angle_alpha   90.00000000
_cell_angle_beta   90.00000000
_cell_angle_gamma   147.37984684
_chemical_formula_structural   Ba5Sn
_chemical_formula_sum   'Ba5 Sn1'
_cell_volume   305.51416914
loop_
 _symmetry_equiv_pos_site_id
 _symmetry_equiv_pos_as_xyz
  1  'x, y, z'
loop_
 _atom_type_symbol
  Ba
  Sn
loop_
 _atom_site_type_symbol
 _atom_site_label
 _atom_site_symmetry_multiplicity
 _atom_site_fract_x
 _atom_site_fract_y
 _atom_site_fract_z
 _atom_site_occupancy
  Ba  Ba0  1  0.97758785  0.02241215  0.00000000  1
  Ba  Ba1  1  0.29950906  0.70049094  0.00000000  1
  Ba  Ba2  1  0.63888643  0.36111357  0.00000000  1
  Ba  Ba3  1  0.49955290  0.50044710  0.50000000  1
  Ba  Ba4  1  0.77877982  0.22122018  0.50000000  1
  Sn  Sn0  1  0.13901727  0.86098273  0.50000000  1
