# generated using pymatgen
data_2655_Ag4Al4
_symmetry_space_group_name_H-M   'P4/mmm'
_cell_length_a   4.05726534
_cell_length_b   8.27953291
_cell_length_c   4.05726534
_cell_angle_alpha   90.00000000
_cell_angle_beta   90.00000000
_cell_angle_gamma   90.00000000
_chemical_formula_structural   Ag4Al4
_chemical_formula_sum   'Ag4 Al4'
_cell_volume   136.29271993
loop_
 _symmetry_equiv_pos_site_id
 _symmetry_equiv_pos_as_xyz
  1  'x, y, z'
loop_
 _atom_type_symbol
  Ag
  Al
loop_
 _atom_site_type_symbol
 _atom_site_label
 _atom_site_symmetry_multiplicity
 _atom_site_fract_x
 _atom_site_fract_y
 _atom_site_fract_z
 _atom_site_occupancy
  Ag  Ag0  1  0.00000000  0.98670889  0.00000000  1
  Ag  Ag1  1  0.50000000  0.25000000  0.00000000  1
  Ag  Ag2  1  0.00000000  0.51329111  0.00000000  1
  Ag  Ag3  1  0.00000000  0.25000000  0.50000000  1
  Al  Al0  1  0.50000000  0.75000000  0.00000000  1
  Al  Al1  1  0.50000000  0.00012010  0.50000000  1
  Al  Al2  1  0.50000000  0.49987990  0.50000000  1
  Al  Al3  1  0.00000000  0.75000000  0.50000000  1
