# generated using pymatgen
data_265_Pd16Ta14
_symmetry_space_group_name_H-M   'P4_2/mnm'
_cell_length_a   9.87713633
_cell_length_b   9.87713633
_cell_length_c   5.18157528
_cell_angle_alpha   90.00000000
_cell_angle_beta   90.00000000
_cell_angle_gamma   90.00000000
_chemical_formula_structural   Pd16Ta14
_chemical_formula_sum   'Pd16 Ta14'
_cell_volume   505.50319927
loop_
 _symmetry_equiv_pos_site_id
 _symmetry_equiv_pos_as_xyz
  1  'x, y, z'
loop_
 _atom_type_symbol
  Pd
  Ta
loop_
 _atom_site_type_symbol
 _atom_site_label
 _atom_site_symmetry_multiplicity
 _atom_site_fract_x
 _atom_site_fract_y
 _atom_site_fract_z
 _atom_site_occupancy
  Pd  Pd0  1  0.13390618  0.53709289  0.00000000  1
  Pd  Pd1  1  0.86609382  0.46290711  0.00000000  1
  Pd  Pd2  1  0.96290711  0.63390618  0.50000000  1
  Pd  Pd3  1  0.03709289  0.36609382  0.50000000  1
  Pd  Pd4  1  0.36609382  0.03709289  0.50000000  1
  Pd  Pd5  1  0.63390618  0.96290711  0.50000000  1
  Pd  Pd6  1  0.53709289  0.13390618  0.00000000  1
  Pd  Pd7  1  0.46290711  0.86609382  0.00000000  1
  Pd  Pd8  1  0.31932417  0.31932417  0.24761120  1
  Pd  Pd9  1  0.68067583  0.68067583  0.24761120  1
  Pd  Pd10  1  0.18067583  0.81932417  0.74761120  1
  Pd  Pd11  1  0.81932417  0.18067583  0.74761120  1
  Pd  Pd12  1  0.18067583  0.81932417  0.25238880  1
  Pd  Pd13  1  0.81932417  0.18067583  0.25238880  1
  Pd  Pd14  1  0.31932417  0.31932417  0.75238880  1
  Pd  Pd15  1  0.68067583  0.68067583  0.75238880  1
  Ta  Ta0  1  0.00000000  0.00000000  0.00000000  1
  Ta  Ta1  1  0.50000000  0.50000000  0.50000000  1
  Ta  Ta2  1  0.39862817  0.60137183  0.00000000  1
  Ta  Ta3  1  0.60137183  0.39862817  0.00000000  1
  Ta  Ta4  1  0.89862817  0.89862817  0.50000000  1
  Ta  Ta5  1  0.10137183  0.10137183  0.50000000  1
  Ta  Ta6  1  0.06251364  0.27031104  0.00000000  1
  Ta  Ta7  1  0.93748636  0.72968896  0.00000000  1
  Ta  Ta8  1  0.22968896  0.56251364  0.50000000  1
  Ta  Ta9  1  0.77031104  0.43748636  0.50000000  1
  Ta  Ta10  1  0.43748636  0.77031104  0.50000000  1
  Ta  Ta11  1  0.56251364  0.22968896  0.50000000  1
  Ta  Ta12  1  0.27031104  0.06251364  0.00000000  1
  Ta  Ta13  1  0.72968896  0.93748636  0.00000000  1
