# generated using pymatgen
data_267_CrP7
_symmetry_space_group_name_H-M   'Fm -3 m'
_cell_length_a   5.38089682
_cell_length_b   5.38089682
_cell_length_c   5.38089682
_cell_angle_alpha   60.00000000
_cell_angle_beta   60.00000000
_cell_angle_gamma   60.00000000
_chemical_formula_structural   CrP7
_chemical_formula_sum   'Cr1 P7'
_cell_volume   110.16635878
loop_
 _symmetry_equiv_pos_site_id
 _symmetry_equiv_pos_as_xyz
  1  'x, y, z'
loop_
 _atom_type_symbol
  Cr
  P
loop_
 _atom_site_type_symbol
 _atom_site_label
 _atom_site_symmetry_multiplicity
 _atom_site_fract_x
 _atom_site_fract_y
 _atom_site_fract_z
 _atom_site_occupancy
  Cr  Cr0  1  0.00000000  0.00000000  0.00000000  1
  P  P0  1  0.50000000  0.00000000  0.50000000  1
  P  P1  1  0.00000000  0.50000000  0.50000000  1
  P  P2  1  0.00000000  0.00000000  0.50000000  1
  P  P3  1  0.00000000  0.50000000  0.00000000  1
  P  P4  1  0.50000000  0.00000000  0.00000000  1
  P  P5  1  0.50000000  0.50000000  0.00000000  1
  P  P6  1  0.50000000  0.50000000  0.50000000  1
