# generated using pymatgen
data_268_FeW2
_symmetry_space_group_name_H-M   'I4/mmm'
_cell_length_a   3.12074850
_cell_length_b   4.97379159
_cell_length_c   3.12074850
_cell_angle_alpha   71.71648559
_cell_angle_beta   90.00000000
_cell_angle_gamma   108.28351441
_chemical_formula_structural   FeW2
_chemical_formula_sum   'Fe1 W2'
_cell_volume   43.41164867
loop_
 _symmetry_equiv_pos_site_id
 _symmetry_equiv_pos_as_xyz
  1  'x, y, z'
loop_
 _atom_type_symbol
  Fe
  W
loop_
 _atom_site_type_symbol
 _atom_site_label
 _atom_site_symmetry_multiplicity
 _atom_site_fract_x
 _atom_site_fract_y
 _atom_site_fract_z
 _atom_site_occupancy
  Fe  Fe0  1  0.00000000  0.00000000  0.00000000  1
  W  W0  1  0.33718206  0.67436412  0.66281794  1
  W  W1  1  0.66281794  0.32563588  0.33718206  1
