# generated using pymatgen
data_271_PtV2
_symmetry_space_group_name_H-M   'Fmmm'
_cell_length_a   6.25347750
_cell_length_b   6.23267180
_cell_length_c   2.67822100
_cell_angle_alpha   77.97919971
_cell_angle_beta   77.08838861
_cell_angle_gamma   24.77976442
_chemical_formula_structural   PtV2
_chemical_formula_sum   'Pt1 V2'
_cell_volume   42.64152536
loop_
 _symmetry_equiv_pos_site_id
 _symmetry_equiv_pos_as_xyz
  1  'x, y, z'
loop_
 _atom_type_symbol
  Pt
  V
loop_
 _atom_site_type_symbol
 _atom_site_label
 _atom_site_symmetry_multiplicity
 _atom_site_fract_x
 _atom_site_fract_y
 _atom_site_fract_z
 _atom_site_occupancy
  Pt  Pt0  1  0.00000000  0.00000000  0.00000000  1
  V  V0  1  0.33326607  0.33369110  0.66774503  1
  V  V1  1  0.66673393  0.66630890  0.33225497  1
