# generated using pymatgen
data_2728_Pd2V4
_symmetry_space_group_name_H-M   'Pnnm'
_cell_length_a   3.05151381
_cell_length_b   7.11822392
_cell_length_c   3.91958122
_cell_angle_alpha   90.00000000
_cell_angle_beta   90.00000000
_cell_angle_gamma   90.00000000
_chemical_formula_structural   Pd2V4
_chemical_formula_sum   'Pd2 V4'
_cell_volume   85.13862922
loop_
 _symmetry_equiv_pos_site_id
 _symmetry_equiv_pos_as_xyz
  1  'x, y, z'
loop_
 _atom_type_symbol
  Pd
  V
loop_
 _atom_site_type_symbol
 _atom_site_label
 _atom_site_symmetry_multiplicity
 _atom_site_fract_x
 _atom_site_fract_y
 _atom_site_fract_z
 _atom_site_occupancy
  Pd  Pd0  1  0.00000000  0.00000000  0.00000000  1
  Pd  Pd1  1  0.50000000  0.50000000  0.50000000  1
  V  V0  1  0.07696686  0.35075450  0.00000000  1
  V  V1  1  0.42303314  0.85075450  0.50000000  1
  V  V2  1  0.57696686  0.14924550  0.50000000  1
  V  V3  1  0.92303314  0.64924550  0.00000000  1
