# generated using pymatgen
data_272_NbPb3
_symmetry_space_group_name_H-M   'Cmmm'
_cell_length_a   5.74929771
_cell_length_b   5.74929771
_cell_length_c   3.27492009
_cell_angle_alpha   90.00000000
_cell_angle_beta   90.00000000
_cell_angle_gamma   105.59970033
_chemical_formula_structural   NbPb3
_chemical_formula_sum   'Nb1 Pb3'
_cell_volume   104.26307568
loop_
 _symmetry_equiv_pos_site_id
 _symmetry_equiv_pos_as_xyz
  1  'x, y, z'
loop_
 _atom_type_symbol
  Nb
  Pb
loop_
 _atom_site_type_symbol
 _atom_site_label
 _atom_site_symmetry_multiplicity
 _atom_site_fract_x
 _atom_site_fract_y
 _atom_site_fract_z
 _atom_site_occupancy
  Nb  Nb0  1  0.00000000  0.00000000  0.00000000  1
  Pb  Pb0  1  0.00000000  0.50000000  0.50000000  1
  Pb  Pb1  1  0.50000000  1.00000000  0.50000000  1
  Pb  Pb2  1  0.50000000  0.50000000  0.00000000  1
