# generated using pymatgen
data_2730_Ir2Nb2
_symmetry_space_group_name_H-M   'Cmme'
_cell_length_a   2.80142290
_cell_length_b   2.80142290
_cell_length_c   8.39467339
_cell_angle_alpha   90.00000000
_cell_angle_beta   90.00000000
_cell_angle_gamma   96.07691133
_chemical_formula_structural   Ir2Nb2
_chemical_formula_sum   'Ir2 Nb2'
_cell_volume   65.51094015
loop_
 _symmetry_equiv_pos_site_id
 _symmetry_equiv_pos_as_xyz
  1  'x, y, z'
loop_
 _atom_type_symbol
  Ir
  Nb
loop_
 _atom_site_type_symbol
 _atom_site_label
 _atom_site_symmetry_multiplicity
 _atom_site_fract_x
 _atom_site_fract_y
 _atom_site_fract_z
 _atom_site_occupancy
  Ir  Ir0  1  1.00000000  0.00000000  0.99039693  1
  Ir  Ir1  1  0.50000000  0.50000000  0.75960307  1
  Nb  Nb0  1  1.00000000  0.00000000  0.51656838  1
  Nb  Nb1  1  0.50000000  0.50000000  0.23343162  1
