# generated using pymatgen
data_2732_Ba2Cu6
_symmetry_space_group_name_H-M   'Pmmn'
_cell_length_a   4.31220246
_cell_length_b   5.93952872
_cell_length_c   6.82089772
_cell_angle_alpha   90.00000000
_cell_angle_beta   90.00000000
_cell_angle_gamma   90.00000000
_chemical_formula_structural   Ba2Cu6
_chemical_formula_sum   'Ba2 Cu6'
_cell_volume   174.69990425
loop_
 _symmetry_equiv_pos_site_id
 _symmetry_equiv_pos_as_xyz
  1  'x, y, z'
loop_
 _atom_type_symbol
  Ba
  Cu
loop_
 _atom_site_type_symbol
 _atom_site_label
 _atom_site_symmetry_multiplicity
 _atom_site_fract_x
 _atom_site_fract_y
 _atom_site_fract_z
 _atom_site_occupancy
  Ba  Ba0  1  0.00000000  0.38110386  0.00000000  1
  Ba  Ba1  1  0.50000000  0.61889614  0.50000000  1
  Cu  Cu0  1  0.50000000  0.87794064  0.00000000  1
  Cu  Cu1  1  0.00000000  0.12205936  0.50000000  1
  Cu  Cu2  1  0.00000000  0.90529963  0.18710698  1
  Cu  Cu3  1  0.00000000  0.90529963  0.81289302  1
  Cu  Cu4  1  0.50000000  0.09470037  0.68710698  1
  Cu  Cu5  1  0.50000000  0.09470037  0.31289302  1
