# generated using pymatgen
data_2734_Al6Sr2
_symmetry_space_group_name_H-M   'Pmmn'
_cell_length_a   4.48042330
_cell_length_b   6.94910244
_cell_length_c   6.05163348
_cell_angle_alpha   90.00000000
_cell_angle_beta   90.00000000
_cell_angle_gamma   90.00000000
_chemical_formula_structural   Al6Sr2
_chemical_formula_sum   'Al6 Sr2'
_cell_volume   188.41712721
loop_
 _symmetry_equiv_pos_site_id
 _symmetry_equiv_pos_as_xyz
  1  'x, y, z'
loop_
 _atom_type_symbol
  Al
  Sr
loop_
 _atom_site_type_symbol
 _atom_site_label
 _atom_site_symmetry_multiplicity
 _atom_site_fract_x
 _atom_site_fract_y
 _atom_site_fract_z
 _atom_site_occupancy
  Al  Al0  1  0.50000000  0.78772290  0.00000000  1
  Al  Al1  1  0.00000000  0.21227710  0.50000000  1
  Al  Al2  1  0.00000000  0.87732091  0.25529706  1
  Al  Al3  1  0.00000000  0.87732091  0.74470294  1
  Al  Al4  1  0.50000000  0.12267909  0.75529706  1
  Al  Al5  1  0.50000000  0.12267909  0.24470294  1
  Sr  Sr0  1  0.00000000  0.41292648  0.00000000  1
  Sr  Sr1  1  0.50000000  0.58707352  0.50000000  1
