# generated using pymatgen
data_2739_As4Br2
_symmetry_space_group_name_H-M   'Cmcm'
_cell_length_a   8.43740815
_cell_length_b   8.43740815
_cell_length_c   5.29644902
_cell_angle_alpha   90.00000000
_cell_angle_beta   90.00000000
_cell_angle_gamma   154.50166576
_chemical_formula_structural   As4Br2
_chemical_formula_sum   'As4 Br2'
_cell_volume   162.31579761
loop_
 _symmetry_equiv_pos_site_id
 _symmetry_equiv_pos_as_xyz
  1  'x, y, z'
loop_
 _atom_type_symbol
  As
  Br
loop_
 _atom_site_type_symbol
 _atom_site_label
 _atom_site_symmetry_multiplicity
 _atom_site_fract_x
 _atom_site_fract_y
 _atom_site_fract_z
 _atom_site_occupancy
  As  As0  1  0.09640464  0.90359536  0.00000000  1
  As  As1  1  0.70099339  0.29900661  0.00000000  1
  As  As2  1  0.34803980  0.65196020  0.50000000  1
  As  As3  1  0.74345105  0.25654895  0.50000000  1
  Br  Br0  1  0.38573561  0.61426439  0.00000000  1
  Br  Br1  1  0.05870884  0.94129116  0.50000000  1
