# generated using pymatgen
data_2742_CsIr
_symmetry_space_group_name_H-M   'R -3 m'
_cell_length_a   6.15952968
_cell_length_b   6.15952968
_cell_length_c   6.15952971
_cell_angle_alpha   30.03254993
_cell_angle_beta   30.03254993
_cell_angle_gamma   30.03253967
_chemical_formula_structural   CsIr
_chemical_formula_sum   'Cs1 Ir1'
_cell_volume   51.85426620
loop_
 _symmetry_equiv_pos_site_id
 _symmetry_equiv_pos_as_xyz
  1  'x, y, z'
loop_
 _atom_type_symbol
  Cs
  Ir
loop_
 _atom_site_type_symbol
 _atom_site_label
 _atom_site_symmetry_multiplicity
 _atom_site_fract_x
 _atom_site_fract_y
 _atom_site_fract_z
 _atom_site_occupancy
  Cs  Cs0  1  0.00000000  0.00000000  0.00000000  1
  Ir  Ir0  1  0.50000000  0.50000000  0.50000027  1
