# generated using pymatgen
data_2747_AuBr3
_symmetry_space_group_name_H-M   'P4/mmm'
_cell_length_a   3.13892676
_cell_length_b   3.13892676
_cell_length_c   11.31491527
_cell_angle_alpha   90.00000000
_cell_angle_beta   90.00000000
_cell_angle_gamma   90.00000000
_chemical_formula_structural   AuBr3
_chemical_formula_sum   'Au1 Br3'
_cell_volume   111.48428970
loop_
 _symmetry_equiv_pos_site_id
 _symmetry_equiv_pos_as_xyz
  1  'x, y, z'
loop_
 _atom_type_symbol
  Au
  Br
loop_
 _atom_site_type_symbol
 _atom_site_label
 _atom_site_symmetry_multiplicity
 _atom_site_fract_x
 _atom_site_fract_y
 _atom_site_fract_z
 _atom_site_occupancy
  Au  Au0  1  0.00000000  0.00000000  0.00000000  1
  Br  Br0  1  0.50000000  0.50000000  0.18137754  1
  Br  Br1  1  0.00000000  0.00000000  0.50000000  1
  Br  Br2  1  0.50000000  0.50000000  0.81862246  1
