# generated using pymatgen
data_2751_Ga2P2
_symmetry_space_group_name_H-M   'Pmmn'
_cell_length_a   3.63240160
_cell_length_b   3.65772779
_cell_length_c   6.29625520
_cell_angle_alpha   54.69929406
_cell_angle_beta   90.00000000
_cell_angle_gamma   90.00000000
_chemical_formula_structural   Ga2P2
_chemical_formula_sum   'Ga2 P2'
_cell_volume   68.27271216
loop_
 _symmetry_equiv_pos_site_id
 _symmetry_equiv_pos_as_xyz
  1  'x, y, z'
loop_
 _atom_type_symbol
  Ga
  P
loop_
 _atom_site_type_symbol
 _atom_site_label
 _atom_site_symmetry_multiplicity
 _atom_site_fract_x
 _atom_site_fract_y
 _atom_site_fract_z
 _atom_site_occupancy
  Ga  Ga0  1  0.75000000  0.47414862  0.24774324  1
  Ga  Ga1  1  0.25000000  0.52585138  0.75225676  1
  P  P0  1  0.75000000  0.02481211  0.74885149  1
  P  P1  1  0.25000000  0.97518789  0.25114851  1
