# generated using pymatgen
data_2753_IrTa3
_symmetry_space_group_name_H-M   'Immm'
_cell_length_a   4.50755435
_cell_length_b   5.34176462
_cell_length_c   3.35469207
_cell_angle_alpha   71.69918381
_cell_angle_beta   90.00000000
_cell_angle_gamma   114.95562615
_chemical_formula_structural   IrTa3
_chemical_formula_sum   'Ir1 Ta3'
_cell_volume   68.70110373
loop_
 _symmetry_equiv_pos_site_id
 _symmetry_equiv_pos_as_xyz
  1  'x, y, z'
loop_
 _atom_type_symbol
  Ir
  Ta
loop_
 _atom_site_type_symbol
 _atom_site_label
 _atom_site_symmetry_multiplicity
 _atom_site_fract_x
 _atom_site_fract_y
 _atom_site_fract_z
 _atom_site_occupancy
  Ir  Ir0  1  0.00000000  0.00000000  0.00000000  1
  Ta  Ta0  1  0.24776784  0.49553568  0.25223216  1
  Ta  Ta1  1  0.50000000  0.00000000  0.50000000  1
  Ta  Ta2  1  0.75223216  0.50446432  0.74776784  1
