# generated using pymatgen
data_2754_Ag7Pt5
_symmetry_space_group_name_H-M   'P1'
_cell_length_a   4.92645201
_cell_length_b   4.98259963
_cell_length_c   8.67141877
_cell_angle_alpha   84.52503283
_cell_angle_beta   73.29078298
_cell_angle_gamma   80.59497505
_chemical_formula_structural   Ag7Pt5
_chemical_formula_sum   'Ag7 Pt5'
_cell_volume   200.86112692
loop_
 _symmetry_equiv_pos_site_id
 _symmetry_equiv_pos_as_xyz
  1  'x, y, z'
loop_
 _atom_type_symbol
  Ag
  Pt
loop_
 _atom_site_type_symbol
 _atom_site_label
 _atom_site_symmetry_multiplicity
 _atom_site_fract_x
 _atom_site_fract_y
 _atom_site_fract_z
 _atom_site_occupancy
  Ag  Ag0  1  0.99786915  0.99366354  0.99838217  1
  Ag  Ag1  1  0.41476343  0.24401298  0.08223054  1
  Ag  Ag2  1  0.83575437  0.49810393  0.16468052  1
  Ag  Ag3  1  0.25211211  0.74830943  0.24825325  1
  Ag  Ag4  1  0.66286401  0.00673295  0.33803203  1
  Ag  Ag5  1  0.50358629  0.50478554  0.50150903  1
  Ag  Ag6  1  0.91876056  0.75432576  0.58231546  1
  Pt  Pt0  1  0.08511594  0.24921043  0.42303109  1
  Pt  Pt1  1  0.32338030  0.01224221  0.67428219  1
  Pt  Pt2  1  0.74786026  0.24993290  0.75115984  1
  Pt  Pt3  1  0.16940881  0.50033910  0.83005233  1
  Pt  Pt4  1  0.58852477  0.73834123  0.90607155  1
