# generated using pymatgen
data_2755_PaPb
_symmetry_space_group_name_H-M   'P4/mmm'
_cell_length_a   3.44620793
_cell_length_b   4.87367300
_cell_length_c   4.61097500
_cell_angle_alpha   90.00000000
_cell_angle_beta   90.00000000
_cell_angle_gamma   45.00000000
_chemical_formula_structural   PaPb
_chemical_formula_sum   'Pa1 Pb1'
_cell_volume   54.76153769
loop_
 _symmetry_equiv_pos_site_id
 _symmetry_equiv_pos_as_xyz
  1  'x, y, z'
loop_
 _atom_type_symbol
  Pa
  Pb
loop_
 _atom_site_type_symbol
 _atom_site_label
 _atom_site_symmetry_multiplicity
 _atom_site_fract_x
 _atom_site_fract_y
 _atom_site_fract_z
 _atom_site_occupancy
  Pa  Pa0  1  0.00000000  0.00000000  0.00000000  1
  Pb  Pb0  1  0.00000000  0.50000072  0.50000051  1
