# generated using pymatgen
data_2758_Al2Mn
_symmetry_space_group_name_H-M   'Fm -3 m'
_cell_length_a   5.75913451
_cell_length_b   5.75913451
_cell_length_c   5.75913451
_cell_angle_alpha   90.00000000
_cell_angle_beta   90.00000000
_cell_angle_gamma   90.00000000
_chemical_formula_structural   Al2Mn
_chemical_formula_sum   'Al8 Mn4'
_cell_volume   191.01684430
loop_
 _symmetry_equiv_pos_site_id
 _symmetry_equiv_pos_as_xyz
  1  'x, y, z'
loop_
 _atom_type_symbol
  Al
  Mn
loop_
 _atom_site_type_symbol
 _atom_site_label
 _atom_site_symmetry_multiplicity
 _atom_site_fract_x
 _atom_site_fract_y
 _atom_site_fract_z
 _atom_site_occupancy
  Al  Al0  1  0.74995150  0.74995150  0.25004850  1
  Al  Al1  1  0.25004850  0.25004850  0.74995150  1
  Al  Al2  1  0.24995150  0.75004850  0.74995150  1
  Al  Al3  1  0.75004850  0.24995150  0.25004850  1
  Al  Al4  1  0.25004850  0.24995150  0.24995150  1
  Al  Al5  1  0.74995150  0.75004850  0.75004850  1
  Al  Al6  1  0.75004850  0.25004850  0.75004850  1
  Al  Al7  1  0.24995150  0.74995150  0.24995150  1
  Mn  Mn0  1  0.00000000  0.00000000  0.00000000  1
  Mn  Mn1  1  0.50000000  0.50000000  0.00000000  1
  Mn  Mn2  1  0.50000000  0.00000000  0.50000000  1
  Mn  Mn3  1  0.00000000  0.50000000  0.50000000  1
