# generated using pymatgen
data_275_V4W4
_symmetry_space_group_name_H-M   'Pnma'
_cell_length_a   5.29802289
_cell_length_b   4.52980067
_cell_length_c   5.02311829
_cell_angle_alpha   90.00000000
_cell_angle_beta   90.00000000
_cell_angle_gamma   90.00000000
_chemical_formula_structural   V4W4
_chemical_formula_sum   'V4 W4'
_cell_volume   120.54975374
loop_
 _symmetry_equiv_pos_site_id
 _symmetry_equiv_pos_as_xyz
  1  'x, y, z'
loop_
 _atom_type_symbol
  V
  W
loop_
 _atom_site_type_symbol
 _atom_site_label
 _atom_site_symmetry_multiplicity
 _atom_site_fract_x
 _atom_site_fract_y
 _atom_site_fract_z
 _atom_site_occupancy
  V  V0  1  0.10621084  0.25000000  0.12848666  1
  V  V1  1  0.39378916  0.75000000  0.62848666  1
  V  V2  1  0.60621084  0.25000000  0.37151334  1
  V  V3  1  0.89378916  0.75000000  0.87151334  1
  W  W0  1  0.11786613  0.25000000  0.62728860  1
  W  W1  1  0.38213387  0.75000000  0.12728860  1
  W  W2  1  0.61786613  0.25000000  0.87271140  1
  W  W3  1  0.88213387  0.75000000  0.37271140  1
