# generated using pymatgen
data_2760_Cu4Nb4
_symmetry_space_group_name_H-M   'P2_13'
_cell_length_a   5.00094173
_cell_length_b   5.00094173
_cell_length_c   5.00094173
_cell_angle_alpha   90.00000000
_cell_angle_beta   90.00000000
_cell_angle_gamma   90.00000000
_chemical_formula_structural   Cu4Nb4
_chemical_formula_sum   'Cu4 Nb4'
_cell_volume   125.07064305
loop_
 _symmetry_equiv_pos_site_id
 _symmetry_equiv_pos_as_xyz
  1  'x, y, z'
loop_
 _atom_type_symbol
  Cu
  Nb
loop_
 _atom_site_type_symbol
 _atom_site_label
 _atom_site_symmetry_multiplicity
 _atom_site_fract_x
 _atom_site_fract_y
 _atom_site_fract_z
 _atom_site_occupancy
  Cu  Cu0  1  0.40256624  0.40256624  0.40256624  1
  Cu  Cu1  1  0.09743376  0.59743376  0.90256624  1
  Cu  Cu2  1  0.59743376  0.90256624  0.09743376  1
  Cu  Cu3  1  0.90256624  0.09743376  0.59743376  1
  Nb  Nb0  1  0.09188222  0.09188222  0.09188222  1
  Nb  Nb1  1  0.40811778  0.90811778  0.59188222  1
  Nb  Nb2  1  0.90811778  0.59188222  0.40811778  1
  Nb  Nb3  1  0.59188222  0.40811778  0.90811778  1
