# generated using pymatgen
data_2761_AuK3
_symmetry_space_group_name_H-M   'Imm2'
_cell_length_a   7.97933939
_cell_length_b   7.97933939
_cell_length_c   7.97933939
_cell_angle_alpha   147.90989360
_cell_angle_beta   127.14718576
_cell_angle_gamma   63.18711241
_chemical_formula_structural   AuK3
_chemical_formula_sum   'Au1 K3'
_cell_volume   212.92433357
loop_
 _symmetry_equiv_pos_site_id
 _symmetry_equiv_pos_as_xyz
  1  'x, y, z'
loop_
 _atom_type_symbol
  Au
  K
loop_
 _atom_site_type_symbol
 _atom_site_label
 _atom_site_symmetry_multiplicity
 _atom_site_fract_x
 _atom_site_fract_y
 _atom_site_fract_z
 _atom_site_occupancy
  Au  Au0  1  0.99040486  0.00000000  0.99040486  1
  K  K0  1  0.62439140  0.50000000  0.12439140  1
  K  K1  1  0.93538325  0.32611471  0.60926854  1
  K  K2  1  0.28315382  0.67388529  0.60926854  1
