# generated using pymatgen
data_2765_In6Mn18
_symmetry_space_group_name_H-M   'Pmmn'
_cell_length_a   4.63128826
_cell_length_b   5.51216982
_cell_length_c   13.23778505
_cell_angle_alpha   90.00000000
_cell_angle_beta   90.00000000
_cell_angle_gamma   90.00000000
_chemical_formula_structural   In6Mn18
_chemical_formula_sum   'In6 Mn18'
_cell_volume   337.94009900
loop_
 _symmetry_equiv_pos_site_id
 _symmetry_equiv_pos_as_xyz
  1  'x, y, z'
loop_
 _atom_type_symbol
  In
  Mn
loop_
 _atom_site_type_symbol
 _atom_site_label
 _atom_site_symmetry_multiplicity
 _atom_site_fract_x
 _atom_site_fract_y
 _atom_site_fract_z
 _atom_site_occupancy
  In  In0  1  0.98079179  0.25000000  0.75000000  1
  In  In1  1  0.68699807  0.25000000  0.41080708  1
  In  In2  1  0.68699807  0.25000000  0.08919292  1
  In  In3  1  0.01920821  0.75000000  0.25000000  1
  In  In4  1  0.31300193  0.75000000  0.91080708  1
  In  In5  1  0.31300193  0.75000000  0.58919292  1
  Mn  Mn0  1  0.18483488  0.99624180  0.41906001  1
  Mn  Mn1  1  0.18483488  0.99624180  0.08093999  1
  Mn  Mn2  1  0.47831290  0.00949032  0.75000000  1
  Mn  Mn3  1  0.52168710  0.99050968  0.25000000  1
  Mn  Mn4  1  0.81516512  0.00375820  0.91906001  1
  Mn  Mn5  1  0.81516512  0.00375820  0.58093999  1
  Mn  Mn6  1  0.09601062  0.25000000  0.25000000  1
  Mn  Mn7  1  0.32414219  0.25000000  0.91850068  1
  Mn  Mn8  1  0.32414219  0.25000000  0.58149932  1
  Mn  Mn9  1  0.18483488  0.50375820  0.41906001  1
  Mn  Mn10  1  0.18483488  0.50375820  0.08093999  1
  Mn  Mn11  1  0.47831290  0.49050968  0.75000000  1
  Mn  Mn12  1  0.52168710  0.50949032  0.25000000  1
  Mn  Mn13  1  0.81516512  0.49624180  0.91906001  1
  Mn  Mn14  1  0.81516512  0.49624180  0.58093999  1
  Mn  Mn15  1  0.90398938  0.75000000  0.75000000  1
  Mn  Mn16  1  0.67585781  0.75000000  0.41850068  1
  Mn  Mn17  1  0.67585781  0.75000000  0.08149932  1
