# generated using pymatgen
data_2778_Sn6W4
_symmetry_space_group_name_H-M   'Fdd2'
_cell_length_a   9.10107024
_cell_length_b   6.96923337
_cell_length_c   6.86807310
_cell_angle_alpha   82.24889603
_cell_angle_beta   49.35528908
_cell_angle_gamma   48.39581489
_chemical_formula_structural   Sn6W4
_chemical_formula_sum   'Sn6 W4'
_cell_volume   210.42172634
loop_
 _symmetry_equiv_pos_site_id
 _symmetry_equiv_pos_as_xyz
  1  'x, y, z'
loop_
 _atom_type_symbol
  Sn
  W
loop_
 _atom_site_type_symbol
 _atom_site_label
 _atom_site_symmetry_multiplicity
 _atom_site_fract_x
 _atom_site_fract_y
 _atom_site_fract_z
 _atom_site_occupancy
  Sn  Sn0  1  0.78992733  0.42011148  0.37218544  1
  Sn  Sn1  1  0.41777575  0.37218544  0.42011148  1
  Sn  Sn2  1  0.82988852  0.46007267  0.83222425  1
  Sn  Sn3  1  0.87781456  0.83222425  0.46007267  1
  Sn  Sn4  1  0.12481319  0.87518681  0.87518681  1
  Sn  Sn5  1  0.37481319  0.12518681  0.12518681  1
  W  W0  1  0.16130412  0.91380188  0.41871439  1
  W  W1  1  0.50617961  0.41871439  0.91380188  1
  W  W2  1  0.33619812  0.08869588  0.74382039  1
  W  W3  1  0.83128561  0.74382039  0.08869588  1
