# generated using pymatgen
data_277_Ba2Cu2
_symmetry_space_group_name_H-M   'Cmcm'
_cell_length_a   6.77105378
_cell_length_b   6.77105378
_cell_length_c   4.51174656
_cell_angle_alpha   90.00000000
_cell_angle_beta   90.00000000
_cell_angle_gamma   140.72767406
_chemical_formula_structural   Ba2Cu2
_chemical_formula_sum   'Ba2 Cu2'
_cell_volume   130.93801620
loop_
 _symmetry_equiv_pos_site_id
 _symmetry_equiv_pos_as_xyz
  1  'x, y, z'
loop_
 _atom_type_symbol
  Ba
  Cu
loop_
 _atom_site_type_symbol
 _atom_site_label
 _atom_site_symmetry_multiplicity
 _atom_site_fract_x
 _atom_site_fract_y
 _atom_site_fract_z
 _atom_site_occupancy
  Ba  Ba0  1  0.86457422  0.13542578  0.75000000  1
  Ba  Ba1  1  0.13542578  0.86457422  0.25000000  1
  Cu  Cu0  1  0.54628870  0.45371130  0.75000000  1
  Cu  Cu1  1  0.45371130  0.54628870  0.25000000  1
