# generated using pymatgen
data_2781_Ac2Al6
_symmetry_space_group_name_H-M   'P6_3/mmc'
_cell_length_a   6.97998300
_cell_length_b   6.97998360
_cell_length_c   4.61293600
_cell_angle_alpha   90.00000000
_cell_angle_beta   90.00000000
_cell_angle_gamma   120.00000190
_chemical_formula_structural   Ac2Al6
_chemical_formula_sum   'Ac2 Al6'
_cell_volume   194.63315371
loop_
 _symmetry_equiv_pos_site_id
 _symmetry_equiv_pos_as_xyz
  1  'x, y, z'
loop_
 _atom_type_symbol
  Ac
  Al
loop_
 _atom_site_type_symbol
 _atom_site_label
 _atom_site_symmetry_multiplicity
 _atom_site_fract_x
 _atom_site_fract_y
 _atom_site_fract_z
 _atom_site_occupancy
  Ac  Ac0  1  0.66666672  0.33333375  0.24999913  1
  Ac  Ac1  1  0.33333380  0.66666749  0.74999955  1
  Al  Al0  1  0.13249313  0.26498623  0.24999913  1
  Al  Al1  1  0.13249324  0.86750647  0.24999913  1
  Al  Al2  1  0.73501337  0.86750647  0.24999913  1
  Al  Al3  1  0.26498632  0.13249311  0.74999955  1
  Al  Al4  1  0.86750789  0.13249312  0.74999955  1
  Al  Al5  1  0.86750739  0.73501502  0.74999955  1
