# generated using pymatgen
data_2793_Mo2Rh6
_symmetry_space_group_name_H-M   'I4/mmm'
_cell_length_a   3.86827266
_cell_length_b   3.86827266
_cell_length_c   8.19149394
_cell_angle_alpha   76.34263018
_cell_angle_beta   76.34263018
_cell_angle_gamma   90.00000000
_chemical_formula_structural   Mo2Rh6
_chemical_formula_sum   'Mo2 Rh6'
_cell_volume   115.53825254
loop_
 _symmetry_equiv_pos_site_id
 _symmetry_equiv_pos_as_xyz
  1  'x, y, z'
loop_
 _atom_type_symbol
  Mo
  Rh
loop_
 _atom_site_type_symbol
 _atom_site_label
 _atom_site_symmetry_multiplicity
 _atom_site_fract_x
 _atom_site_fract_y
 _atom_site_fract_z
 _atom_site_occupancy
  Mo  Mo0  1  0.62867626  0.62867626  0.74264748  1
  Mo  Mo1  1  0.37132374  0.37132374  0.25735252  1
  Rh  Rh0  1  0.00000000  0.50000000  0.00000000  1
  Rh  Rh1  1  0.87851183  0.87851183  0.24297634  1
  Rh  Rh2  1  0.12148817  0.12148817  0.75702366  1
  Rh  Rh3  1  0.75000000  0.25000000  0.50000000  1
  Rh  Rh4  1  0.25000000  0.75000000  0.50000000  1
  Rh  Rh5  1  0.50000000  0.00000000  0.00000000  1
