# generated using pymatgen
data_2794_Ga5Pt
_symmetry_space_group_name_H-M   'Amm2'
_cell_length_a   3.39660097
_cell_length_b   6.73043863
_cell_length_c   4.80094531
_cell_angle_alpha   90.00000000
_cell_angle_beta   90.00000000
_cell_angle_gamma   75.38448907
_chemical_formula_structural   Ga5Pt
_chemical_formula_sum   'Ga5 Pt1'
_cell_volume   106.20106480
loop_
 _symmetry_equiv_pos_site_id
 _symmetry_equiv_pos_as_xyz
  1  'x, y, z'
loop_
 _atom_type_symbol
  Ga
  Pt
loop_
 _atom_site_type_symbol
 _atom_site_label
 _atom_site_symmetry_multiplicity
 _atom_site_fract_x
 _atom_site_fract_y
 _atom_site_fract_z
 _atom_site_occupancy
  Ga  Ga0  1  0.99388743  0.01222514  0.00000000  1
  Ga  Ga1  1  0.66240869  0.67518263  0.00000000  1
  Ga  Ga2  1  0.33169885  0.33660229  0.00000000  1
  Ga  Ga3  1  0.54837051  0.90325897  0.50000000  1
  Ga  Ga4  1  0.23149784  0.53700432  0.50000000  1
  Pt  Pt0  1  0.89880335  0.20239331  0.50000000  1
