# generated using pymatgen
data_2796_Mo12Rh12
_symmetry_space_group_name_H-M   'Pbcm'
_cell_length_a   8.76243133
_cell_length_b   7.59820167
_cell_length_c   5.45581812
_cell_angle_alpha   90.00000000
_cell_angle_beta   90.00000000
_cell_angle_gamma   90.00000000
_chemical_formula_structural   Mo12Rh12
_chemical_formula_sum   'Mo12 Rh12'
_cell_volume   363.24138897
loop_
 _symmetry_equiv_pos_site_id
 _symmetry_equiv_pos_as_xyz
  1  'x, y, z'
loop_
 _atom_type_symbol
  Mo
  Rh
loop_
 _atom_site_type_symbol
 _atom_site_label
 _atom_site_symmetry_multiplicity
 _atom_site_fract_x
 _atom_site_fract_y
 _atom_site_fract_z
 _atom_site_occupancy
  Mo  Mo0  1  0.12176244  0.92326277  0.25000000  1
  Mo  Mo1  1  0.87823756  0.07673723  0.75000000  1
  Mo  Mo2  1  0.87823756  0.42326277  0.25000000  1
  Mo  Mo3  1  0.12176244  0.57673723  0.75000000  1
  Mo  Mo4  1  0.37243276  0.41096565  0.25000000  1
  Mo  Mo5  1  0.62756724  0.58903435  0.75000000  1
  Mo  Mo6  1  0.62756724  0.91096565  0.25000000  1
  Mo  Mo7  1  0.37243276  0.08903435  0.75000000  1
  Mo  Mo8  1  0.12783069  0.25000000  0.00000000  1
  Mo  Mo9  1  0.87216931  0.75000000  0.50000000  1
  Mo  Mo10  1  0.87216931  0.75000000  0.00000000  1
  Mo  Mo11  1  0.12783069  0.25000000  0.50000000  1
  Rh  Rh0  1  0.12905185  0.58678881  0.25000000  1
  Rh  Rh1  1  0.87094815  0.41321119  0.75000000  1
  Rh  Rh2  1  0.87094815  0.08678881  0.25000000  1
  Rh  Rh3  1  0.12905185  0.91321119  0.75000000  1
  Rh  Rh4  1  0.37731227  0.08074077  0.25000000  1
  Rh  Rh5  1  0.62268773  0.91925923  0.75000000  1
  Rh  Rh6  1  0.62268773  0.58074077  0.25000000  1
  Rh  Rh7  1  0.37731227  0.41925923  0.75000000  1
  Rh  Rh8  1  0.62538836  0.25000000  0.00000000  1
  Rh  Rh9  1  0.37461164  0.75000000  0.50000000  1
  Rh  Rh10  1  0.37461164  0.75000000  0.00000000  1
  Rh  Rh11  1  0.62538836  0.25000000  0.50000000  1
