# generated using pymatgen
data_279_Ba2Cu4
_symmetry_space_group_name_H-M   'Cmcm'
_cell_length_a   6.55513274
_cell_length_b   6.55513274
_cell_length_c   5.96369755
_cell_angle_alpha   90.00000000
_cell_angle_beta   90.00000000
_cell_angle_gamma   141.91622295
_chemical_formula_structural   Ba2Cu4
_chemical_formula_sum   'Ba2 Cu4'
_cell_volume   158.06369635
loop_
 _symmetry_equiv_pos_site_id
 _symmetry_equiv_pos_as_xyz
  1  'x, y, z'
loop_
 _atom_type_symbol
  Ba
  Cu
loop_
 _atom_site_type_symbol
 _atom_site_label
 _atom_site_symmetry_multiplicity
 _atom_site_fract_x
 _atom_site_fract_y
 _atom_site_fract_z
 _atom_site_occupancy
  Ba  Ba0  1  0.66829576  0.33170424  0.00000000  1
  Ba  Ba1  1  0.44281536  0.55718464  0.50000000  1
  Cu  Cu0  1  0.95518209  0.04481791  0.00000000  1
  Cu  Cu1  1  0.37171962  0.62828038  0.00000000  1
  Cu  Cu2  1  0.73939149  0.26060851  0.50000000  1
  Cu  Cu3  1  0.15592902  0.84407098  0.50000000  1
