# generated using pymatgen
data_27_Cr4Sr5
_symmetry_space_group_name_H-M   'I4/mmm'
_cell_length_a   7.91307869
_cell_length_b   7.91307869
_cell_length_c   7.91307869
_cell_angle_alpha   96.66813239
_cell_angle_beta   96.66813239
_cell_angle_gamma   140.15346270
_chemical_formula_structural   Cr4Sr5
_chemical_formula_sum   'Cr4 Sr5'
_cell_volume   298.47705989
loop_
 _symmetry_equiv_pos_site_id
 _symmetry_equiv_pos_as_xyz
  1  'x, y, z'
loop_
 _atom_type_symbol
  Cr
  Sr
loop_
 _atom_site_type_symbol
 _atom_site_label
 _atom_site_symmetry_multiplicity
 _atom_site_fract_x
 _atom_site_fract_y
 _atom_site_fract_z
 _atom_site_occupancy
  Cr  Cr0  1  0.64083584  1.00000000  0.64083584  1
  Cr  Cr1  1  0.35916416  0.00000000  0.35916416  1
  Cr  Cr2  1  1.00000000  0.35916416  0.35916416  1
  Cr  Cr3  1  1.00000000  0.64083584  0.64083584  1
  Sr  Sr0  1  0.00000000  0.00000000  0.00000000  1
  Sr  Sr1  1  0.67785790  0.32214210  0.00000000  1
  Sr  Sr2  1  0.32214210  0.67785790  0.00000000  1
  Sr  Sr3  1  0.32214210  0.32214210  0.64428419  1
  Sr  Sr4  1  0.67785790  0.67785790  0.35571581  1
