# generated using pymatgen
data_2803_Al4Cr2
_symmetry_space_group_name_H-M   'P4_2/mnm'
_cell_length_a   6.49107945
_cell_length_b   6.49107945
_cell_length_c   2.56432346
_cell_angle_alpha   90.00000000
_cell_angle_beta   90.00000000
_cell_angle_gamma   90.00000000
_chemical_formula_structural   Al4Cr2
_chemical_formula_sum   'Al4 Cr2'
_cell_volume   108.04549296
loop_
 _symmetry_equiv_pos_site_id
 _symmetry_equiv_pos_as_xyz
  1  'x, y, z'
loop_
 _atom_type_symbol
  Al
  Cr
loop_
 _atom_site_type_symbol
 _atom_site_label
 _atom_site_symmetry_multiplicity
 _atom_site_fract_x
 _atom_site_fract_y
 _atom_site_fract_z
 _atom_site_occupancy
  Al  Al0  1  0.26343564  0.26343564  0.00000000  1
  Al  Al1  1  0.73656572  0.73656572  0.00000000  1
  Al  Al2  1  0.76343473  0.23656504  0.49999998  1
  Al  Al3  1  0.23656504  0.76343473  0.49999998  1
  Cr  Cr0  1  0.00000000  0.00000000  0.00000000  1
  Cr  Cr1  1  0.50000068  0.50000068  0.49999998  1
