# generated using pymatgen
data_2804_W8Br
_symmetry_space_group_name_H-M   'I4/mmm'
_cell_length_a   6.19890181
_cell_length_b   6.19890181
_cell_length_c   6.19890181
_cell_angle_alpha   97.58771478
_cell_angle_beta   97.58771478
_cell_angle_gamma   137.38436003
_chemical_formula_structural   W8Br
_chemical_formula_sum   'Br1 W8'
_cell_volume   150.25576533
loop_
 _symmetry_equiv_pos_site_id
 _symmetry_equiv_pos_as_xyz
  1  'x, y, z'
loop_
 _atom_type_symbol
  Br
  W
loop_
 _atom_site_type_symbol
 _atom_site_label
 _atom_site_symmetry_multiplicity
 _atom_site_fract_x
 _atom_site_fract_y
 _atom_site_fract_z
 _atom_site_occupancy
  Br  Br0  1  0.00000000  0.00000000  0.00000000  1
  W  W0  1  0.32880934  0.67119066  0.00000000  1
  W  W1  1  0.67119066  0.32880934  0.00000000  1
  W  W2  1  1.00000000  0.33764632  0.33764632  1
  W  W3  1  0.67119066  0.67119066  0.34238131  1
  W  W4  1  0.33764632  0.00000000  0.33764632  1
  W  W5  1  0.32880934  0.32880934  0.65761869  1
  W  W6  1  1.00000000  0.66235368  0.66235368  1
  W  W7  1  0.66235368  0.00000000  0.66235368  1
