# generated using pymatgen
data_2805_Pb8As4
_symmetry_space_group_name_H-M   'Pa -3'
_cell_length_a   7.20755601
_cell_length_b   7.20755601
_cell_length_c   7.20755601
_cell_angle_alpha   90.00000000
_cell_angle_beta   90.00000000
_cell_angle_gamma   90.00000000
_chemical_formula_structural   Pb8As4
_chemical_formula_sum   'As4 Pb8'
_cell_volume   374.42434432
loop_
 _symmetry_equiv_pos_site_id
 _symmetry_equiv_pos_as_xyz
  1  'x, y, z'
loop_
 _atom_type_symbol
  As
  Pb
loop_
 _atom_site_type_symbol
 _atom_site_label
 _atom_site_symmetry_multiplicity
 _atom_site_fract_x
 _atom_site_fract_y
 _atom_site_fract_z
 _atom_site_occupancy
  As  As0  1  0.00000000  0.00000000  0.00000000  1
  As  As1  1  0.50000000  0.50000000  0.00000000  1
  As  As2  1  0.50000000  0.00000000  0.50000000  1
  As  As3  1  0.00000000  0.50000000  0.50000000  1
  Pb  Pb0  1  0.63095469  0.63095469  0.36904531  1
  Pb  Pb1  1  0.36904531  0.36904531  0.63095469  1
  Pb  Pb2  1  0.13095469  0.86904531  0.63095469  1
  Pb  Pb3  1  0.86904531  0.13095469  0.36904531  1
  Pb  Pb4  1  0.36904531  0.13095469  0.13095469  1
  Pb  Pb5  1  0.63095469  0.86904531  0.86904531  1
  Pb  Pb6  1  0.86904531  0.36904531  0.86904531  1
  Pb  Pb7  1  0.13095469  0.63095469  0.13095469  1
