# generated using pymatgen
data_2806_K5P4
_symmetry_space_group_name_H-M   'I4/mmm'
_cell_length_a   7.19084300
_cell_length_b   7.19084300
_cell_length_c   7.19084300
_cell_angle_alpha   96.17737675
_cell_angle_beta   96.17737675
_cell_angle_gamma   141.70092597
_chemical_formula_structural   K5P4
_chemical_formula_sum   'K5 P4'
_cell_volume   217.69353788
loop_
 _symmetry_equiv_pos_site_id
 _symmetry_equiv_pos_as_xyz
  1  'x, y, z'
loop_
 _atom_type_symbol
  K
  P
loop_
 _atom_site_type_symbol
 _atom_site_label
 _atom_site_symmetry_multiplicity
 _atom_site_fract_x
 _atom_site_fract_y
 _atom_site_fract_z
 _atom_site_occupancy
  K  K0  1  0.00000000  0.00000000  0.00000000  1
  K  K1  1  0.67983822  0.32016178  0.00000000  1
  K  K2  1  0.32016178  0.67983822  0.00000000  1
  K  K3  1  0.32016178  0.32016178  0.64032355  1
  K  K4  1  0.67983822  0.67983822  0.35967645  1
  P  P0  1  0.63100993  0.00000000  0.63100993  1
  P  P1  1  0.36899007  0.00000000  0.36899007  1
  P  P2  1  1.00000000  0.36899007  0.36899007  1
  P  P3  1  1.00000000  0.63100993  0.63100993  1
