# generated using pymatgen
data_2807_Al2Na
_symmetry_space_group_name_H-M   'I4/mmm'
_cell_length_a   7.31935935
_cell_length_b   7.31935935
_cell_length_c   7.31935935
_cell_angle_alpha   156.77560238
_cell_angle_beta   156.77560238
_cell_angle_gamma   33.07729945
_chemical_formula_structural   Al2Na
_chemical_formula_sum   'Al2 Na1'
_cell_volume   60.91980121
loop_
 _symmetry_equiv_pos_site_id
 _symmetry_equiv_pos_as_xyz
  1  'x, y, z'
loop_
 _atom_type_symbol
  Al
  Na
loop_
 _atom_site_type_symbol
 _atom_site_label
 _atom_site_symmetry_multiplicity
 _atom_site_fract_x
 _atom_site_fract_y
 _atom_site_fract_z
 _atom_site_occupancy
  Al  Al0  1  0.01409258  0.01409258  0.00000000  1
  Al  Al1  1  0.65257409  0.65257409  0.00000000  1
  Na  Na0  1  0.33333333  0.33333333  0.00000000  1
