# generated using pymatgen
data_280_K3P
_symmetry_space_group_name_H-M   'Imm2'
_cell_length_a   6.89218219
_cell_length_b   6.89218219
_cell_length_c   6.89218219
_cell_angle_alpha   144.40800296
_cell_angle_beta   126.84650874
_cell_angle_gamma   65.61566412
_chemical_formula_structural   K3P
_chemical_formula_sum   'K3 P1'
_cell_volume   150.50489702
loop_
 _symmetry_equiv_pos_site_id
 _symmetry_equiv_pos_as_xyz
  1  'x, y, z'
loop_
 _atom_type_symbol
  K
  P
loop_
 _atom_site_type_symbol
 _atom_site_label
 _atom_site_symmetry_multiplicity
 _atom_site_fract_x
 _atom_site_fract_y
 _atom_site_fract_z
 _atom_site_occupancy
  K  K0  1  0.74942761  0.74947841  0.99994921  1
  K  K1  1  0.25047080  0.25052159  0.99994921  1
  K  K2  1  0.16668975  0.50000000  0.66668975  1
  P  P0  1  0.66674183  0.00000000  0.66674183  1
