# generated using pymatgen
data_2810_NaPd4
_symmetry_space_group_name_H-M   'I4/m'
_cell_length_a   6.29365958
_cell_length_b   6.29365958
_cell_length_c   4.88833864
_cell_angle_alpha   49.92856599
_cell_angle_beta   49.92856584
_cell_angle_gamma   90.00000000
_chemical_formula_structural   NaPd4
_chemical_formula_sum   'Na1 Pd4'
_cell_volume   80.11420311
loop_
 _symmetry_equiv_pos_site_id
 _symmetry_equiv_pos_as_xyz
  1  'x, y, z'
loop_
 _atom_type_symbol
  Na
  Pd
loop_
 _atom_site_type_symbol
 _atom_site_label
 _atom_site_symmetry_multiplicity
 _atom_site_fract_x
 _atom_site_fract_y
 _atom_site_fract_z
 _atom_site_occupancy
  Na  Na0  1  0.00000000  0.00000000  0.00000000  1
  Pd  Pd0  1  0.80431797  0.60075324  0.00000000  1
  Pd  Pd1  1  0.60075324  0.19568203  0.00000000  1
  Pd  Pd2  1  0.19568203  0.39924676  0.00000000  1
  Pd  Pd3  1  0.39924676  0.80431797  0.00000000  1
