# generated using pymatgen
data_2813_InRh3
_symmetry_space_group_name_H-M   'P4/mmm'
_cell_length_a   2.86693560
_cell_length_b   2.86693560
_cell_length_c   7.62672218
_cell_angle_alpha   90.00000000
_cell_angle_beta   90.00000000
_cell_angle_gamma   90.67008869
_chemical_formula_structural   InRh3
_chemical_formula_sum   'In1 Rh3'
_cell_volume   62.68218115
loop_
 _symmetry_equiv_pos_site_id
 _symmetry_equiv_pos_as_xyz
  1  'x, y, z'
loop_
 _atom_type_symbol
  In
  Rh
loop_
 _atom_site_type_symbol
 _atom_site_label
 _atom_site_symmetry_multiplicity
 _atom_site_fract_x
 _atom_site_fract_y
 _atom_site_fract_z
 _atom_site_occupancy
  In  In0  1  0.00000000  0.00000000  0.00000000  1
  Rh  Rh0  1  0.50000000  0.50000000  0.73725100  1
  Rh  Rh1  1  0.00000000  0.00000000  0.50000000  1
  Rh  Rh2  1  0.50000000  0.50000000  0.26274900  1
