# generated using pymatgen
data_2816_Pt4As8
_symmetry_space_group_name_H-M   'Pa -3'
_cell_length_a   6.03708370
_cell_length_b   6.03708370
_cell_length_c   6.03708370
_cell_angle_alpha   90.00000000
_cell_angle_beta   90.00000000
_cell_angle_gamma   90.00000000
_chemical_formula_structural   Pt4As8
_chemical_formula_sum   'As8 Pt4'
_cell_volume   220.02984421
loop_
 _symmetry_equiv_pos_site_id
 _symmetry_equiv_pos_as_xyz
  1  'x, y, z'
loop_
 _atom_type_symbol
  As
  Pt
loop_
 _atom_site_type_symbol
 _atom_site_label
 _atom_site_symmetry_multiplicity
 _atom_site_fract_x
 _atom_site_fract_y
 _atom_site_fract_z
 _atom_site_occupancy
  As  As0  1  0.88323910  0.38323910  0.11676090  1
  As  As1  1  0.61676090  0.88323910  0.11676090  1
  As  As2  1  0.38323910  0.38323910  0.38323910  1
  As  As3  1  0.11676090  0.88323910  0.38323910  1
  As  As4  1  0.88323910  0.11676090  0.61676090  1
  As  As5  1  0.61676090  0.61676090  0.61676090  1
  As  As6  1  0.38323910  0.11676090  0.88323910  1
  As  As7  1  0.11676090  0.61676090  0.88323910  1
  Pt  Pt0  1  0.00000000  0.00000000  0.00000000  1
  Pt  Pt1  1  0.50000000  0.50000000  0.00000000  1
  Pt  Pt2  1  0.50000000  0.00000000  0.50000000  1
  Pt  Pt3  1  0.00000000  0.50000000  0.50000000  1
