# generated using pymatgen
data_2818_SbP3
_symmetry_space_group_name_H-M   'Imm2'
_cell_length_a   5.56903395
_cell_length_b   5.56903395
_cell_length_c   5.56903395
_cell_angle_alpha   147.14766739
_cell_angle_beta   106.79578250
_cell_angle_gamma   82.58629500
_chemical_formula_structural   SbP3
_chemical_formula_sum   'P3 Sb1'
_cell_volume   87.52204526
loop_
 _symmetry_equiv_pos_site_id
 _symmetry_equiv_pos_as_xyz
  1  'x, y, z'
loop_
 _atom_type_symbol
  P
  Sb
loop_
 _atom_site_type_symbol
 _atom_site_label
 _atom_site_symmetry_multiplicity
 _atom_site_fract_x
 _atom_site_fract_y
 _atom_site_fract_z
 _atom_site_occupancy
  P  P0  1  0.92694054  0.91853315  0.00840738  1
  P  P1  1  0.58987423  0.58146685  0.00840738  1
  P  P2  1  0.90760859  0.25000000  0.65760859  1
  Sb  Sb0  1  0.40890997  0.75000000  0.65890997  1
