# generated using pymatgen
data_2819_Sn2Ta
_symmetry_space_group_name_H-M   'I4/mmm'
_cell_length_a   5.35110552
_cell_length_b   5.35110552
_cell_length_c   5.35110552
_cell_angle_alpha   139.88311013
_cell_angle_beta   139.85153007
_cell_angle_gamma   58.05481347
_chemical_formula_structural   Sn2Ta
_chemical_formula_sum   'Sn2 Ta1'
_cell_volume   63.08934785
loop_
 _symmetry_equiv_pos_site_id
 _symmetry_equiv_pos_as_xyz
  1  'x, y, z'
loop_
 _atom_type_symbol
  Sn
  Ta
loop_
 _atom_site_type_symbol
 _atom_site_label
 _atom_site_symmetry_multiplicity
 _atom_site_fract_x
 _atom_site_fract_y
 _atom_site_fract_z
 _atom_site_occupancy
  Sn  Sn0  1  0.66029738  0.66029738  1.00000000  1
  Sn  Sn1  1  0.33970262  0.33970262  1.00000000  1
  Ta  Ta0  1  0.00000000  0.00000000  0.00000000  1
