# generated using pymatgen
data_2824_EuMn
_symmetry_space_group_name_H-M   'P-6m2'
_cell_length_a   3.32506700
_cell_length_b   3.32506307
_cell_length_c   4.86946300
_cell_angle_alpha   89.99999569
_cell_angle_beta   89.99998823
_cell_angle_gamma   120.00064048
_chemical_formula_structural   EuMn
_chemical_formula_sum   'Eu1 Mn1'
_cell_volume   46.62396314
loop_
 _symmetry_equiv_pos_site_id
 _symmetry_equiv_pos_as_xyz
  1  'x, y, z'
loop_
 _atom_type_symbol
  Eu
  Mn
loop_
 _atom_site_type_symbol
 _atom_site_label
 _atom_site_symmetry_multiplicity
 _atom_site_fract_x
 _atom_site_fract_y
 _atom_site_fract_z
 _atom_site_occupancy
  Eu  Eu0  1  0.66666545  0.33333034  0.74999842  1
  Mn  Mn0  1  0.33333270  0.66666545  0.24999877  1
