# generated using pymatgen
data_2831_AuI
_symmetry_space_group_name_H-M   'P-6m2'
_cell_length_a   3.94163941
_cell_length_b   3.94164091
_cell_length_c   3.99551040
_cell_angle_alpha   90.00000000
_cell_angle_beta   90.00000000
_cell_angle_gamma   119.99999672
_chemical_formula_structural   AuI
_chemical_formula_sum   'Au1 I1'
_cell_volume   53.75970283
loop_
 _symmetry_equiv_pos_site_id
 _symmetry_equiv_pos_as_xyz
  1  'x, y, z'
loop_
 _atom_type_symbol
  Au
  I
loop_
 _atom_site_type_symbol
 _atom_site_label
 _atom_site_symmetry_multiplicity
 _atom_site_fract_x
 _atom_site_fract_y
 _atom_site_fract_z
 _atom_site_occupancy
  Au  Au0  1  0.66666527  0.33332710  0.75000078  1
  I  I0  1  0.33333631  0.66667241  0.25000106  1
