# generated using pymatgen
data_2832_AlMo3
_symmetry_space_group_name_H-M   'Immm'
_cell_length_a   5.19778947
_cell_length_b   5.19778947
_cell_length_c   5.19778947
_cell_angle_alpha   144.32109221
_cell_angle_beta   129.58998710
_cell_angle_gamma   63.28277106
_chemical_formula_structural   AlMo3
_chemical_formula_sum   'Al1 Mo3'
_cell_volume   62.38893455
loop_
 _symmetry_equiv_pos_site_id
 _symmetry_equiv_pos_as_xyz
  1  'x, y, z'
loop_
 _atom_type_symbol
  Al
  Mo
loop_
 _atom_site_type_symbol
 _atom_site_label
 _atom_site_symmetry_multiplicity
 _atom_site_fract_x
 _atom_site_fract_y
 _atom_site_fract_z
 _atom_site_occupancy
  Al  Al0  1  0.08248480  1.00000000  0.08248480  1
  Mo  Mo0  1  0.58380568  0.50000000  0.08380568  1
  Mo  Mo1  1  0.82324374  0.23972231  0.58352143  1
  Mo  Mo2  1  0.34379912  0.76027769  0.58352143  1
