# generated using pymatgen
data_2833_Nb2As2
_symmetry_space_group_name_H-M   'Imma'
_cell_length_a   5.47334911
_cell_length_b   5.47334911
_cell_length_c   5.47334911
_cell_angle_alpha   144.54952456
_cell_angle_beta   131.53427590
_cell_angle_gamma   61.46567697
_chemical_formula_structural   Nb2As2
_chemical_formula_sum   'As2 Nb2'
_cell_volume   70.44842954
loop_
 _symmetry_equiv_pos_site_id
 _symmetry_equiv_pos_as_xyz
  1  'x, y, z'
loop_
 _atom_type_symbol
  As
  Nb
loop_
 _atom_site_type_symbol
 _atom_site_label
 _atom_site_symmetry_multiplicity
 _atom_site_fract_x
 _atom_site_fract_y
 _atom_site_fract_z
 _atom_site_occupancy
  As  As0  1  0.35853913  0.60853913  0.25000000  1
  As  As1  1  0.64146087  0.39146087  0.75000000  1
  Nb  Nb0  1  0.86081452  0.11081452  0.25000000  1
  Nb  Nb1  1  0.13918548  0.88918548  0.75000000  1
