# generated using pymatgen
data_2841_FePb
_symmetry_space_group_name_H-M   'P-6m2'
_cell_length_a   3.36048800
_cell_length_b   3.36038323
_cell_length_c   4.01352900
_cell_angle_alpha   90.00000000
_cell_angle_beta   90.00000000
_cell_angle_gamma   120.00103135
_chemical_formula_structural   FePb
_chemical_formula_sum   'Fe1 Pb1'
_cell_volume   39.25036333
loop_
 _symmetry_equiv_pos_site_id
 _symmetry_equiv_pos_as_xyz
  1  'x, y, z'
loop_
 _atom_type_symbol
  Fe
  Pb
loop_
 _atom_site_type_symbol
 _atom_site_label
 _atom_site_symmetry_multiplicity
 _atom_site_fract_x
 _atom_site_fract_y
 _atom_site_fract_z
 _atom_site_occupancy
  Fe  Fe0  1  0.66667030  0.33333716  0.74999834  1
  Pb  Pb0  1  0.33333201  0.66666402  0.24999945  1
