# generated using pymatgen
data_2843_In2P2
_symmetry_space_group_name_H-M   'Imma'
_cell_length_a   5.96193773
_cell_length_b   5.96193773
_cell_length_c   5.96193773
_cell_angle_alpha   148.03129533
_cell_angle_beta   125.52730629
_cell_angle_gamma   64.56871592
_chemical_formula_structural   In2P2
_chemical_formula_sum   'In2 P2'
_cell_volume   90.31452977
loop_
 _symmetry_equiv_pos_site_id
 _symmetry_equiv_pos_as_xyz
  1  'x, y, z'
loop_
 _atom_type_symbol
  In
  P
loop_
 _atom_site_type_symbol
 _atom_site_label
 _atom_site_symmetry_multiplicity
 _atom_site_fract_x
 _atom_site_fract_y
 _atom_site_fract_z
 _atom_site_occupancy
  In  In0  1  0.02162156  0.02162156  0.00000000  1
  In  In1  1  0.72837844  0.22837844  0.50000000  1
  P  P0  1  0.44919152  0.44919152  1.00000000  1
  P  P1  1  0.30080848  0.80080848  0.50000000  1
