# generated using pymatgen
data_2844_Mn3Sb
_symmetry_space_group_name_H-M   'P4/mmm'
_cell_length_a   2.93325920
_cell_length_b   2.93325920
_cell_length_c   6.13984583
_cell_angle_alpha   90.00000000
_cell_angle_beta   90.00000000
_cell_angle_gamma   89.94724112
_chemical_formula_structural   Mn3Sb
_chemical_formula_sum   'Mn3 Sb1'
_cell_volume   52.82726984
loop_
 _symmetry_equiv_pos_site_id
 _symmetry_equiv_pos_as_xyz
  1  'x, y, z'
loop_
 _atom_type_symbol
  Mn
  Sb
loop_
 _atom_site_type_symbol
 _atom_site_label
 _atom_site_symmetry_multiplicity
 _atom_site_fract_x
 _atom_site_fract_y
 _atom_site_fract_z
 _atom_site_occupancy
  Mn  Mn0  1  0.00000000  0.00000000  0.97287248  1
  Mn  Mn1  1  0.50000000  0.50000000  0.75000000  1
  Mn  Mn2  1  0.00000000  0.00000000  0.52712752  1
  Sb  Sb0  1  0.50000000  0.50000000  0.25000000  1
