# generated using pymatgen
data_2846_Mo2Sr2
_symmetry_space_group_name_H-M   'Imma'
_cell_length_a   6.42128880
_cell_length_b   6.42128880
_cell_length_c   5.78514378
_cell_angle_alpha   63.37809743
_cell_angle_beta   63.37809743
_cell_angle_gamma   32.22108459
_chemical_formula_structural   Mo2Sr2
_chemical_formula_sum   'Mo2 Sr2'
_cell_volume   112.50403888
loop_
 _symmetry_equiv_pos_site_id
 _symmetry_equiv_pos_as_xyz
  1  'x, y, z'
loop_
 _atom_type_symbol
  Mo
  Sr
loop_
 _atom_site_type_symbol
 _atom_site_label
 _atom_site_symmetry_multiplicity
 _atom_site_fract_x
 _atom_site_fract_y
 _atom_site_fract_z
 _atom_site_occupancy
  Mo  Mo0  1  0.05238063  0.05238063  0.03166628  1
  Mo  Mo1  1  0.69761937  0.69761937  0.88500039  1
  Sr  Sr0  1  0.47656624  0.47656624  0.60774797  1
  Sr  Sr1  1  0.27343376  0.27343376  0.30891870  1
