# generated using pymatgen
data_2855_PdP2
_symmetry_space_group_name_H-M   'I4/mmm'
_cell_length_a   5.75967904
_cell_length_b   5.75967904
_cell_length_c   5.75967904
_cell_angle_alpha   150.83730172
_cell_angle_beta   150.83730172
_cell_angle_gamma   41.71370714
_chemical_formula_structural   PdP2
_chemical_formula_sum   'P2 Pd1'
_cell_volume   45.26634731
loop_
 _symmetry_equiv_pos_site_id
 _symmetry_equiv_pos_as_xyz
  1  'x, y, z'
loop_
 _atom_type_symbol
  P
  Pd
loop_
 _atom_site_type_symbol
 _atom_site_label
 _atom_site_symmetry_multiplicity
 _atom_site_fract_x
 _atom_site_fract_y
 _atom_site_fract_z
 _atom_site_occupancy
  P  P0  1  0.15395146  0.15395146  0.00000000  1
  P  P1  1  0.84604854  0.84604854  0.00000000  1
  Pd  Pd0  1  0.50000000  0.50000000  0.00000000  1
