# generated using pymatgen
data_2863_Au3As
_symmetry_space_group_name_H-M   'Pmm2'
_cell_length_a   2.96129615
_cell_length_b   4.84427766
_cell_length_c   5.12563370
_cell_angle_alpha   90.00000000
_cell_angle_beta   90.00000000
_cell_angle_gamma   90.00000000
_chemical_formula_structural   Au3As
_chemical_formula_sum   'As1 Au3'
_cell_volume   73.52896216
loop_
 _symmetry_equiv_pos_site_id
 _symmetry_equiv_pos_as_xyz
  1  'x, y, z'
loop_
 _atom_type_symbol
  As
  Au
loop_
 _atom_site_type_symbol
 _atom_site_label
 _atom_site_symmetry_multiplicity
 _atom_site_fract_x
 _atom_site_fract_y
 _atom_site_fract_z
 _atom_site_occupancy
  As  As0  1  0.00000000  0.00000000  0.99998466  1
  Au  Au0  1  0.50000000  0.00000000  0.49968890  1
  Au  Au1  1  0.50000000  0.50000000  0.83372832  1
  Au  Au2  1  0.00000000  0.50000000  0.33326479  1
