# generated using pymatgen
data_2866_Mn4Ta2
_symmetry_space_group_name_H-M   'Cmcm'
_cell_length_a   3.04425950
_cell_length_b   6.53987902
_cell_length_c   4.18935270
_cell_angle_alpha   90.00000000
_cell_angle_beta   90.00000000
_cell_angle_gamma   76.54121406
_chemical_formula_structural   Mn4Ta2
_chemical_formula_sum   'Mn4 Ta2'
_cell_volume   81.11566006
loop_
 _symmetry_equiv_pos_site_id
 _symmetry_equiv_pos_as_xyz
  1  'x, y, z'
loop_
 _atom_type_symbol
  Mn
  Ta
loop_
 _atom_site_type_symbol
 _atom_site_label
 _atom_site_symmetry_multiplicity
 _atom_site_fract_x
 _atom_site_fract_y
 _atom_site_fract_z
 _atom_site_occupancy
  Mn  Mn0  1  0.58630584  0.82738832  0.25000000  1
  Mn  Mn1  1  0.41369416  0.17261168  0.75000000  1
  Mn  Mn2  1  0.24241336  0.51517328  0.25000000  1
  Mn  Mn3  1  0.75758664  0.48482672  0.75000000  1
  Ta  Ta0  1  0.91255708  0.17488585  0.25000000  1
  Ta  Ta1  1  0.08744292  0.82511415  0.75000000  1
