# generated using pymatgen
data_2868_InBr3
_symmetry_space_group_name_H-M   'P4/mmm'
_cell_length_a   3.61436441
_cell_length_b   3.61362743
_cell_length_c   8.68087119
_cell_angle_alpha   90.00000000
_cell_angle_beta   90.00000000
_cell_angle_gamma   90.00000000
_chemical_formula_structural   InBr3
_chemical_formula_sum   'Br3 In1'
_cell_volume   113.38056671
loop_
 _symmetry_equiv_pos_site_id
 _symmetry_equiv_pos_as_xyz
  1  'x, y, z'
loop_
 _atom_type_symbol
  Br
  In
loop_
 _atom_site_type_symbol
 _atom_site_label
 _atom_site_symmetry_multiplicity
 _atom_site_fract_x
 _atom_site_fract_y
 _atom_site_fract_z
 _atom_site_occupancy
  Br  Br0  1  0.50000000  0.50000000  0.80505968  1
  Br  Br1  1  0.00000000  0.00000000  0.50000000  1
  Br  Br2  1  0.50000000  0.50000000  0.19494032  1
  In  In0  1  0.00000000  0.00000000  0.00000000  1
