# generated using pymatgen
data_2870_Al2Mo6
_symmetry_space_group_name_H-M   'P6_3/mmc'
_cell_length_a   5.60945179
_cell_length_b   5.60945233
_cell_length_c   4.63434228
_cell_angle_alpha   90.00000000
_cell_angle_beta   90.00000000
_cell_angle_gamma   120.00000246
_chemical_formula_structural   Al2Mo6
_chemical_formula_sum   'Al2 Mo6'
_cell_volume   126.28727976
loop_
 _symmetry_equiv_pos_site_id
 _symmetry_equiv_pos_as_xyz
  1  'x, y, z'
loop_
 _atom_type_symbol
  Al
  Mo
loop_
 _atom_site_type_symbol
 _atom_site_label
 _atom_site_symmetry_multiplicity
 _atom_site_fract_x
 _atom_site_fract_y
 _atom_site_fract_z
 _atom_site_occupancy
  Al  Al0  1  0.66666700  0.33333300  0.25000000  1
  Al  Al1  1  0.33333300  0.66666700  0.75000000  1
  Mo  Mo0  1  0.15953603  0.31907207  0.25000000  1
  Mo  Mo1  1  0.15953603  0.84046397  0.25000000  1
  Mo  Mo2  1  0.68092793  0.84046397  0.25000000  1
  Mo  Mo3  1  0.31907207  0.15953603  0.75000000  1
  Mo  Mo4  1  0.84046397  0.15953603  0.75000000  1
  Mo  Mo5  1  0.84046397  0.68092793  0.75000000  1
