# generated using pymatgen
data_2871_Fe6Ga2
_symmetry_space_group_name_H-M   'Cmcm'
_cell_length_a   5.14402699
_cell_length_b   5.14402699
_cell_length_c   4.19756153
_cell_angle_alpha   90.00000000
_cell_angle_beta   90.00000000
_cell_angle_gamma   118.92668591
_chemical_formula_structural   Fe6Ga2
_chemical_formula_sum   'Fe6 Ga2'
_cell_volume   97.21435023
loop_
 _symmetry_equiv_pos_site_id
 _symmetry_equiv_pos_as_xyz
  1  'x, y, z'
loop_
 _atom_type_symbol
  Fe
  Ga
loop_
 _atom_site_type_symbol
 _atom_site_label
 _atom_site_symmetry_multiplicity
 _atom_site_fract_x
 _atom_site_fract_y
 _atom_site_fract_z
 _atom_site_occupancy
  Fe  Fe0  1  0.15157416  0.84842584  0.75000000  1
  Fe  Fe1  1  0.84842584  0.15157416  0.25000000  1
  Fe  Fe2  1  0.67050372  0.84073748  0.75000000  1
  Fe  Fe3  1  0.32949628  0.15926252  0.25000000  1
  Fe  Fe4  1  0.84073748  0.67050372  0.25000000  1
  Fe  Fe5  1  0.15926252  0.32949628  0.75000000  1
  Ga  Ga0  1  0.66698783  0.33301217  0.75000000  1
  Ga  Ga1  1  0.33301217  0.66698783  0.25000000  1
