# generated using pymatgen
data_2878_Al2Ni4
_symmetry_space_group_name_H-M   'Cmcm'
_cell_length_a   6.51167746
_cell_length_b   6.51167746
_cell_length_c   4.08347885
_cell_angle_alpha   90.00000000
_cell_angle_beta   90.00000000
_cell_angle_gamma   156.34240681
_chemical_formula_structural   Al2Ni4
_chemical_formula_sum   'Al2 Ni4'
_cell_volume   69.47886396
loop_
 _symmetry_equiv_pos_site_id
 _symmetry_equiv_pos_as_xyz
  1  'x, y, z'
loop_
 _atom_type_symbol
  Al
  Ni
loop_
 _atom_site_type_symbol
 _atom_site_label
 _atom_site_symmetry_multiplicity
 _atom_site_fract_x
 _atom_site_fract_y
 _atom_site_fract_z
 _atom_site_occupancy
  Al  Al0  1  0.33800291  0.66199709  0.00000000  1
  Al  Al1  1  0.55088598  0.44911402  0.50000000  1
  Ni  Ni0  1  0.00508423  0.99491577  0.00000000  1
  Ni  Ni1  1  0.67548313  0.32451687  0.00000000  1
  Ni  Ni2  1  0.21340576  0.78659424  0.50000000  1
  Ni  Ni3  1  0.88380466  0.11619534  0.50000000  1
