# generated using pymatgen
data_2879_Ca6Nb2
_symmetry_space_group_name_H-M   'Pm -3 n'
_cell_length_a   6.37841099
_cell_length_b   6.37841099
_cell_length_c   6.37841099
_cell_angle_alpha   90.00000000
_cell_angle_beta   90.00000000
_cell_angle_gamma   90.00000000
_chemical_formula_structural   Ca6Nb2
_chemical_formula_sum   'Ca6 Nb2'
_cell_volume   259.50008123
loop_
 _symmetry_equiv_pos_site_id
 _symmetry_equiv_pos_as_xyz
  1  'x, y, z'
loop_
 _atom_type_symbol
  Ca
  Nb
loop_
 _atom_site_type_symbol
 _atom_site_label
 _atom_site_symmetry_multiplicity
 _atom_site_fract_x
 _atom_site_fract_y
 _atom_site_fract_z
 _atom_site_occupancy
  Ca  Ca0  1  0.75000000  0.50000000  0.00000000  1
  Ca  Ca1  1  0.25000000  0.50000000  0.00000000  1
  Ca  Ca2  1  0.00000000  0.75000000  0.50000000  1
  Ca  Ca3  1  0.00000000  0.25000000  0.50000000  1
  Ca  Ca4  1  0.50000000  0.00000000  0.25000000  1
  Ca  Ca5  1  0.50000000  0.00000000  0.75000000  1
  Nb  Nb0  1  0.00000000  0.00000000  0.00000000  1
  Nb  Nb1  1  0.50000000  0.50000000  0.50000000  1
