# generated using pymatgen
data_2882_Mo2Pd26
_symmetry_space_group_name_H-M   'Fm -3 c'
_cell_length_a   8.78226362
_cell_length_b   8.78226362
_cell_length_c   8.78226362
_cell_angle_alpha   60.00000000
_cell_angle_beta   60.00000000
_cell_angle_gamma   60.00000000
_chemical_formula_structural   Mo2Pd26
_chemical_formula_sum   'Mo2 Pd26'
_cell_volume   478.96569625
loop_
 _symmetry_equiv_pos_site_id
 _symmetry_equiv_pos_as_xyz
  1  'x, y, z'
loop_
 _atom_type_symbol
  Mo
  Pd
loop_
 _atom_site_type_symbol
 _atom_site_label
 _atom_site_symmetry_multiplicity
 _atom_site_fract_x
 _atom_site_fract_y
 _atom_site_fract_z
 _atom_site_occupancy
  Mo  Mo0  1  0.25000000  0.25000000  0.25000000  1
  Mo  Mo1  1  0.75000000  0.75000000  0.75000000  1
  Pd  Pd0  1  0.30095469  0.69904531  0.06087292  1
  Pd  Pd1  1  0.06087292  0.93912708  0.30095469  1
  Pd  Pd2  1  0.93912708  0.06087292  0.69904531  1
  Pd  Pd3  1  0.69904531  0.30095469  0.93912708  1
  Pd  Pd4  1  0.93912708  0.69904531  0.30095469  1
  Pd  Pd5  1  0.69904531  0.93912708  0.06087292  1
  Pd  Pd6  1  0.30095469  0.06087292  0.93912708  1
  Pd  Pd7  1  0.06087292  0.30095469  0.69904531  1
  Pd  Pd8  1  0.06087292  0.69904531  0.93912708  1
  Pd  Pd9  1  0.30095469  0.93912708  0.69904531  1
  Pd  Pd10  1  0.69904531  0.06087292  0.30095469  1
  Pd  Pd11  1  0.93912708  0.30095469  0.06087292  1
  Pd  Pd12  1  0.19904531  0.56087292  0.43912708  1
  Pd  Pd13  1  0.43912708  0.80095469  0.19904531  1
  Pd  Pd14  1  0.56087292  0.19904531  0.80095469  1
  Pd  Pd15  1  0.80095469  0.43912708  0.56087292  1
  Pd  Pd16  1  0.56087292  0.43912708  0.19904531  1
  Pd  Pd17  1  0.80095469  0.19904531  0.43912708  1
  Pd  Pd18  1  0.19904531  0.80095469  0.56087292  1
  Pd  Pd19  1  0.43912708  0.56087292  0.80095469  1
  Pd  Pd20  1  0.43912708  0.19904531  0.56087292  1
  Pd  Pd21  1  0.19904531  0.43912708  0.80095469  1
  Pd  Pd22  1  0.80095469  0.56087292  0.19904531  1
  Pd  Pd23  1  0.56087292  0.80095469  0.43912708  1
  Pd  Pd24  1  0.00000000  0.00000000  0.00000000  1
  Pd  Pd25  1  0.50000000  0.50000000  0.50000000  1
