# generated using pymatgen
data_2883_Pd2W2
_symmetry_space_group_name_H-M   'Cmcm'
_cell_length_a   2.74777298
_cell_length_b   5.43457436
_cell_length_c   4.41710737
_cell_angle_alpha   90.00000000
_cell_angle_beta   90.00000000
_cell_angle_gamma   75.35645185
_chemical_formula_structural   Pd2W2
_chemical_formula_sum   'Pd2 W2'
_cell_volume   63.81798404
loop_
 _symmetry_equiv_pos_site_id
 _symmetry_equiv_pos_as_xyz
  1  'x, y, z'
loop_
 _atom_type_symbol
  Pd
  W
loop_
 _atom_site_type_symbol
 _atom_site_label
 _atom_site_symmetry_multiplicity
 _atom_site_fract_x
 _atom_site_fract_y
 _atom_site_fract_z
 _atom_site_occupancy
  Pd  Pd0  1  0.82564784  0.34870433  0.25000000  1
  Pd  Pd1  1  0.17435216  0.65129567  0.75000000  1
  W  W0  1  0.56758228  0.86483544  0.25000000  1
  W  W1  1  0.43241772  0.13516456  0.75000000  1
