# generated using pymatgen
data_2884_W2P
_symmetry_space_group_name_H-M   'I4/mmm'
_cell_length_a   5.40141063
_cell_length_b   5.40141063
_cell_length_c   5.40141063
_cell_angle_alpha   148.13645398
_cell_angle_beta   148.13645398
_cell_angle_gamma   45.68397248
_chemical_formula_structural   W2P
_chemical_formula_sum   'P1 W2'
_cell_volume   43.76985351
loop_
 _symmetry_equiv_pos_site_id
 _symmetry_equiv_pos_as_xyz
  1  'x, y, z'
loop_
 _atom_type_symbol
  P
  W
loop_
 _atom_site_type_symbol
 _atom_site_label
 _atom_site_symmetry_multiplicity
 _atom_site_fract_x
 _atom_site_fract_y
 _atom_site_fract_z
 _atom_site_occupancy
  P  P0  1  0.00000000  0.00000000  0.00000000  1
  W  W0  1  0.64779751  0.64779751  0.00000000  1
  W  W1  1  0.35220249  0.35220249  0.00000000  1
