# generated using pymatgen
data_2892_Ir4Rh
_symmetry_space_group_name_H-M   'I4/m'
_cell_length_a   6.11809836
_cell_length_b   6.11809836
_cell_length_c   4.73844346
_cell_angle_alpha   49.79074734
_cell_angle_beta   49.79074734
_cell_angle_gamma   90.00000000
_chemical_formula_structural   Ir4Rh
_chemical_formula_sum   'Ir4 Rh1'
_cell_volume   72.36205303
loop_
 _symmetry_equiv_pos_site_id
 _symmetry_equiv_pos_as_xyz
  1  'x, y, z'
loop_
 _atom_type_symbol
  Ir
  Rh
loop_
 _atom_site_type_symbol
 _atom_site_label
 _atom_site_symmetry_multiplicity
 _atom_site_fract_x
 _atom_site_fract_y
 _atom_site_fract_z
 _atom_site_occupancy
  Ir  Ir0  1  0.80039889  0.59900326  0.00000000  1
  Ir  Ir1  1  0.19960111  0.40099674  0.00000000  1
  Ir  Ir2  1  0.59900326  0.19960111  0.00000000  1
  Ir  Ir3  1  0.40099674  0.80039889  0.00000000  1
  Rh  Rh0  1  0.00000000  0.00000000  0.00000000  1
