# generated using pymatgen
data_2894_Rh4W2
_symmetry_space_group_name_H-M   'I4_1/amd'
_cell_length_a   2.78764012
_cell_length_b   2.78764012
_cell_length_c   12.14605820
_cell_angle_alpha   83.41051000
_cell_angle_beta   83.41051000
_cell_angle_gamma   90.00000000
_chemical_formula_structural   Rh4W2
_chemical_formula_sum   'Rh4 W2'
_cell_volume   93.13502106
loop_
 _symmetry_equiv_pos_site_id
 _symmetry_equiv_pos_as_xyz
  1  'x, y, z'
loop_
 _atom_type_symbol
  Rh
  W
loop_
 _atom_site_type_symbol
 _atom_site_label
 _atom_site_symmetry_multiplicity
 _atom_site_fract_x
 _atom_site_fract_y
 _atom_site_fract_z
 _atom_site_occupancy
  Rh  Rh0  1  0.17358407  0.67358407  0.65283187  1
  Rh  Rh1  1  0.32641593  0.82641593  0.34716813  1
  Rh  Rh2  1  0.42358407  0.42358407  0.15283187  1
  Rh  Rh3  1  0.57641593  0.57641593  0.84716813  1
  W  W0  1  0.00000000  0.00000000  0.00000000  1
  W  W1  1  0.75000000  0.25000000  0.50000000  1
