# generated using pymatgen
data_2906_BaW3
_symmetry_space_group_name_H-M   'Imm2'
_cell_length_a   6.34851839
_cell_length_b   6.34851839
_cell_length_c   6.34851839
_cell_angle_alpha   154.70976331
_cell_angle_beta   128.67468366
_cell_angle_gamma   58.05849984
_chemical_formula_structural   BaW3
_chemical_formula_sum   'Ba1 W3'
_cell_volume   84.84029630
loop_
 _symmetry_equiv_pos_site_id
 _symmetry_equiv_pos_as_xyz
  1  'x, y, z'
loop_
 _atom_type_symbol
  Ba
  W
loop_
 _atom_site_type_symbol
 _atom_site_label
 _atom_site_symmetry_multiplicity
 _atom_site_fract_x
 _atom_site_fract_y
 _atom_site_fract_z
 _atom_site_occupancy
  Ba  Ba0  1  0.07416049  1.00000000  0.07416049  1
  W  W0  1  0.57165055  0.50000000  0.07165055  1
  W  W1  1  0.81245513  0.21869398  0.59376115  1
  W  W2  1  0.37506717  0.78130602  0.59376115  1
