# generated using pymatgen
data_2907_Au5Sb
_symmetry_space_group_name_H-M   'Amm2'
_cell_length_a   7.83131726
_cell_length_b   7.83131726
_cell_length_c   4.90794925
_cell_angle_alpha   90.00000000
_cell_angle_beta   90.00000000
_cell_angle_gamma   157.29769133
_chemical_formula_structural   Au5Sb
_chemical_formula_sum   'Au5 Sb1'
_cell_volume   116.16976485
loop_
 _symmetry_equiv_pos_site_id
 _symmetry_equiv_pos_as_xyz
  1  'x, y, z'
loop_
 _atom_type_symbol
  Au
  Sb
loop_
 _atom_site_type_symbol
 _atom_site_label
 _atom_site_symmetry_multiplicity
 _atom_site_fract_x
 _atom_site_fract_y
 _atom_site_fract_z
 _atom_site_occupancy
  Au  Au0  1  0.99651135  0.00348865  0.00000000  1
  Au  Au1  1  0.33323156  0.66676844  0.00000000  1
  Au  Au2  1  0.66961553  0.33038447  0.00000000  1
  Au  Au3  1  0.44170863  0.55829137  0.50000000  1
  Au  Au4  1  0.78196072  0.21803928  0.50000000  1
  Sb  Sb0  1  0.11030554  0.88969446  0.50000000  1
