# generated using pymatgen
data_290_W24P5
_symmetry_space_group_name_H-M   'I-43m'
_cell_length_a   8.57900799
_cell_length_b   8.57900799
_cell_length_c   8.57900799
_cell_angle_alpha   109.47122063
_cell_angle_beta   109.47122063
_cell_angle_gamma   109.47122063
_chemical_formula_structural   W24P5
_chemical_formula_sum   'P5 W24'
_cell_volume   486.05937658
loop_
 _symmetry_equiv_pos_site_id
 _symmetry_equiv_pos_as_xyz
  1  'x, y, z'
loop_
 _atom_type_symbol
  P
  W
loop_
 _atom_site_type_symbol
 _atom_site_label
 _atom_site_symmetry_multiplicity
 _atom_site_fract_x
 _atom_site_fract_y
 _atom_site_fract_z
 _atom_site_occupancy
  P  P0  1  1.00000000  0.56707495  0.00000000  1
  P  P1  1  0.56707495  0.00000000  0.00000000  1
  P  P2  1  1.00000000  0.00000000  0.56707495  1
  P  P3  1  0.43292505  0.43292505  0.43292505  1
  P  P4  1  0.00000000  0.00000000  0.00000000  1
  W  W0  1  0.19676004  0.38520759  0.00000000  1
  W  W1  1  0.38520759  0.19676004  0.00000000  1
  W  W2  1  0.80323996  0.80323996  0.18844755  1
  W  W3  1  0.61479241  0.61479241  0.81155245  1
  W  W4  1  0.80323996  0.18844755  0.80323996  1
  W  W5  1  0.61479241  0.81155245  0.61479241  1
  W  W6  1  0.38520759  0.00000000  0.19676004  1
  W  W7  1  0.19676004  0.00000000  0.38520759  1
  W  W8  1  1.00000000  0.38520759  0.19676004  1
  W  W9  1  1.00000000  0.19676004  0.38520759  1
  W  W10  1  0.81155245  0.61479241  0.61479241  1
  W  W11  1  0.18844755  0.80323996  0.80323996  1
  W  W12  1  0.69170861  0.41944942  0.00000000  1
  W  W13  1  0.41944942  0.69170861  0.00000000  1
  W  W14  1  0.30829139  0.30829139  0.72774081  1
  W  W15  1  0.58055058  0.58055058  0.27225919  1
  W  W16  1  0.30829139  0.72774081  0.30829139  1
  W  W17  1  0.58055058  0.27225919  0.58055058  1
  W  W18  1  0.41944942  0.00000000  0.69170861  1
  W  W19  1  0.69170861  0.00000000  0.41944942  1
  W  W20  1  0.00000000  0.41944942  0.69170861  1
  W  W21  1  0.00000000  0.69170861  0.41944942  1
  W  W22  1  0.27225919  0.58055058  0.58055058  1
  W  W23  1  0.72774081  0.30829139  0.30829139  1
