# generated using pymatgen
data_2910_PtV3
_symmetry_space_group_name_H-M   'Immm'
_cell_length_a   4.20673938
_cell_length_b   4.92301984
_cell_length_c   3.16951894
_cell_angle_alpha   71.22164805
_cell_angle_beta   90.00000000
_cell_angle_gamma   115.29328621
_chemical_formula_structural   PtV3
_chemical_formula_sum   'Pt1 V3'
_cell_volume   55.45851758
loop_
 _symmetry_equiv_pos_site_id
 _symmetry_equiv_pos_as_xyz
  1  'x, y, z'
loop_
 _atom_type_symbol
  Pt
  V
loop_
 _atom_site_type_symbol
 _atom_site_label
 _atom_site_symmetry_multiplicity
 _atom_site_fract_x
 _atom_site_fract_y
 _atom_site_fract_z
 _atom_site_occupancy
  Pt  Pt0  1  0.00000000  0.00000000  0.00000000  1
  V  V0  1  0.25966292  0.51932584  0.24033708  1
  V  V1  1  0.50000000  0.00000000  0.50000000  1
  V  V2  1  0.74033708  0.48067416  0.75966292  1
