# generated using pymatgen
data_2912_K2Br4
_symmetry_space_group_name_H-M   'Pnnm'
_cell_length_a   5.23665813
_cell_length_b   6.11525327
_cell_length_c   8.09972126
_cell_angle_alpha   90.00000000
_cell_angle_beta   90.00000000
_cell_angle_gamma   90.00000000
_chemical_formula_structural   K2Br4
_chemical_formula_sum   'Br4 K2'
_cell_volume   259.38134887
loop_
 _symmetry_equiv_pos_site_id
 _symmetry_equiv_pos_as_xyz
  1  'x, y, z'
loop_
 _atom_type_symbol
  Br
  K
loop_
 _atom_site_type_symbol
 _atom_site_label
 _atom_site_symmetry_multiplicity
 _atom_site_fract_x
 _atom_site_fract_y
 _atom_site_fract_z
 _atom_site_occupancy
  Br  Br0  1  0.00000000  0.18314124  0.61026308  1
  Br  Br1  1  0.00000000  0.81685876  0.38973692  1
  Br  Br2  1  0.50000000  0.68314124  0.88973692  1
  Br  Br3  1  0.50000000  0.31685876  0.11026308  1
  K  K0  1  0.00000000  0.00000000  0.00000000  1
  K  K1  1  0.50000000  0.50000000  0.50000000  1
