# generated using pymatgen
data_2913_Pb2P2
_symmetry_space_group_name_H-M   'P4/nmm'
_cell_length_a   3.33603487
_cell_length_b   3.33603487
_cell_length_c   8.44458779
_cell_angle_alpha   90.00000000
_cell_angle_beta   90.00000000
_cell_angle_gamma   90.00000000
_chemical_formula_structural   Pb2P2
_chemical_formula_sum   'P2 Pb2'
_cell_volume   93.98090394
loop_
 _symmetry_equiv_pos_site_id
 _symmetry_equiv_pos_as_xyz
  1  'x, y, z'
loop_
 _atom_type_symbol
  P
  Pb
loop_
 _atom_site_type_symbol
 _atom_site_label
 _atom_site_symmetry_multiplicity
 _atom_site_fract_x
 _atom_site_fract_y
 _atom_site_fract_z
 _atom_site_occupancy
  P  P0  1  0.25000000  0.25000000  0.53005249  1
  P  P1  1  0.75000000  0.75000000  0.46994751  1
  Pb  Pb0  1  0.25000000  0.25000000  0.16770008  1
  Pb  Pb1  1  0.75000000  0.75000000  0.83229992  1
