# generated using pymatgen
data_2917_Au16Sn4
_symmetry_space_group_name_H-M   'I-43m'
_cell_length_a   8.24502773
_cell_length_b   8.24502773
_cell_length_c   8.24502773
_cell_angle_alpha   109.47122063
_cell_angle_beta   109.47122063
_cell_angle_gamma   109.47122063
_chemical_formula_structural   Au16Sn4
_chemical_formula_sum   'Au16 Sn4'
_cell_volume   431.47384143
loop_
 _symmetry_equiv_pos_site_id
 _symmetry_equiv_pos_as_xyz
  1  'x, y, z'
loop_
 _atom_type_symbol
  Au
  Sn
loop_
 _atom_site_type_symbol
 _atom_site_label
 _atom_site_symmetry_multiplicity
 _atom_site_fract_x
 _atom_site_fract_y
 _atom_site_fract_z
 _atom_site_occupancy
  Au  Au0  1  0.66445272  0.66445272  0.66445272  1
  Au  Au1  1  0.33554728  0.00000000  0.00000000  1
  Au  Au2  1  0.00000000  0.33554728  0.00000000  1
  Au  Au3  1  0.00000000  0.00000000  0.33554728  1
  Au  Au4  1  0.65660528  0.65660528  0.00000000  1
  Au  Au5  1  0.34339472  0.34339472  0.00000000  1
  Au  Au6  1  0.65660528  0.00000000  0.65660528  1
  Au  Au7  1  0.34339472  0.00000000  0.34339472  1
  Au  Au8  1  1.00000000  0.65660528  0.65660528  1
  Au  Au9  1  0.00000000  0.34339472  0.34339472  1
  Au  Au10  1  0.25009283  0.75009283  0.50000000  1
  Au  Au11  1  0.74990717  0.24990717  0.50000000  1
  Au  Au12  1  0.75009283  0.50000000  0.25009283  1
  Au  Au13  1  0.24990717  0.50000000  0.74990717  1
  Au  Au14  1  0.50000000  0.25009283  0.75009283  1
  Au  Au15  1  0.50000000  0.74990717  0.24990717  1
  Sn  Sn0  1  0.33370193  0.33370193  0.33370193  1
  Sn  Sn1  1  0.66629807  0.00000000  0.00000000  1
  Sn  Sn2  1  0.00000000  0.66629807  0.00000000  1
  Sn  Sn3  1  0.00000000  0.00000000  0.66629807  1
