# generated using pymatgen
data_2918_V4P4
_symmetry_space_group_name_H-M   'P2_13'
_cell_length_a   4.65218413
_cell_length_b   4.65218413
_cell_length_c   4.65218413
_cell_angle_alpha   90.00000000
_cell_angle_beta   90.00000000
_cell_angle_gamma   90.00000000
_chemical_formula_structural   V4P4
_chemical_formula_sum   'P4 V4'
_cell_volume   100.68637061
loop_
 _symmetry_equiv_pos_site_id
 _symmetry_equiv_pos_as_xyz
  1  'x, y, z'
loop_
 _atom_type_symbol
  P
  V
loop_
 _atom_site_type_symbol
 _atom_site_label
 _atom_site_symmetry_multiplicity
 _atom_site_fract_x
 _atom_site_fract_y
 _atom_site_fract_z
 _atom_site_occupancy
  P  P0  1  0.59331660  0.59331660  0.40668340  1
  P  P1  1  0.90668340  0.40668340  0.90668340  1
  P  P2  1  0.40668340  0.09331660  0.09331660  1
  P  P3  1  0.09331660  0.90668340  0.59331660  1
  V  V0  1  0.88643560  0.88643560  0.11356440  1
  V  V1  1  0.61356440  0.11356440  0.61356440  1
  V  V2  1  0.11356440  0.38643560  0.38643560  1
  V  V3  1  0.38643560  0.61356440  0.88643560  1
