# generated using pymatgen
data_291_Fe24Pb5
_symmetry_space_group_name_H-M   'I-43m'
_cell_length_a   7.77090695
_cell_length_b   7.77090695
_cell_length_c   7.77090695
_cell_angle_alpha   109.47122063
_cell_angle_beta   109.47122063
_cell_angle_gamma   109.47122063
_chemical_formula_structural   Fe24Pb5
_chemical_formula_sum   'Fe24 Pb5'
_cell_volume   361.23783891
loop_
 _symmetry_equiv_pos_site_id
 _symmetry_equiv_pos_as_xyz
  1  'x, y, z'
loop_
 _atom_type_symbol
  Fe
  Pb
loop_
 _atom_site_type_symbol
 _atom_site_label
 _atom_site_symmetry_multiplicity
 _atom_site_fract_x
 _atom_site_fract_y
 _atom_site_fract_z
 _atom_site_occupancy
  Fe  Fe0  1  0.19795587  0.37300067  0.00000000  1
  Fe  Fe1  1  0.37300067  0.19795587  0.00000000  1
  Fe  Fe2  1  0.80204413  0.80204413  0.17504480  1
  Fe  Fe3  1  0.62699933  0.62699933  0.82495520  1
  Fe  Fe4  1  0.80204413  0.17504480  0.80204413  1
  Fe  Fe5  1  0.62699933  0.82495520  0.62699933  1
  Fe  Fe6  1  0.37300067  0.00000000  0.19795587  1
  Fe  Fe7  1  0.19795587  0.00000000  0.37300067  1
  Fe  Fe8  1  0.00000000  0.37300067  0.19795587  1
  Fe  Fe9  1  0.00000000  0.19795587  0.37300067  1
  Fe  Fe10  1  0.82495520  0.62699933  0.62699933  1
  Fe  Fe11  1  0.17504480  0.80204413  0.80204413  1
  Fe  Fe12  1  0.66349421  0.38519381  0.00000000  1
  Fe  Fe13  1  0.38519381  0.66349421  0.00000000  1
  Fe  Fe14  1  0.33650579  0.33650579  0.72169960  1
  Fe  Fe15  1  0.61480619  0.61480619  0.27830040  1
  Fe  Fe16  1  0.33650579  0.72169960  0.33650579  1
  Fe  Fe17  1  0.61480619  0.27830040  0.61480619  1
  Fe  Fe18  1  0.38519381  0.00000000  0.66349421  1
  Fe  Fe19  1  0.66349421  0.00000000  0.38519381  1
  Fe  Fe20  1  1.00000000  0.38519381  0.66349421  1
  Fe  Fe21  1  1.00000000  0.66349421  0.38519381  1
  Fe  Fe22  1  0.27830040  0.61480619  0.61480619  1
  Fe  Fe23  1  0.72169960  0.33650579  0.33650579  1
  Pb  Pb0  1  1.00000000  0.60962127  0.00000000  1
  Pb  Pb1  1  0.60962127  0.00000000  0.00000000  1
  Pb  Pb2  1  1.00000000  0.00000000  0.60962127  1
  Pb  Pb3  1  0.39037873  0.39037873  0.39037873  1
  Pb  Pb4  1  0.00000000  0.00000000  0.00000000  1
