# generated using pymatgen
data_2920_Fe2Mo6
_symmetry_space_group_name_H-M   'I4/mmm'
_cell_length_a   3.80992134
_cell_length_b   3.80992134
_cell_length_c   8.63180877
_cell_angle_alpha   102.74960947
_cell_angle_beta   102.74960947
_cell_angle_gamma   90.00000000
_chemical_formula_structural   Fe2Mo6
_chemical_formula_sum   'Fe2 Mo6'
_cell_volume   119.03628510
loop_
 _symmetry_equiv_pos_site_id
 _symmetry_equiv_pos_as_xyz
  1  'x, y, z'
loop_
 _atom_type_symbol
  Fe
  Mo
loop_
 _atom_site_type_symbol
 _atom_site_label
 _atom_site_symmetry_multiplicity
 _atom_site_fract_x
 _atom_site_fract_y
 _atom_site_fract_z
 _atom_site_occupancy
  Fe  Fe0  1  0.37316566  0.37316566  0.74633132  1
  Fe  Fe1  1  0.62683434  0.62683434  0.25366868  1
  Mo  Mo0  1  0.00000000  0.50000000  0.00000000  1
  Mo  Mo1  1  0.50000000  0.00000000  0.00000000  1
  Mo  Mo2  1  0.25000000  0.75000000  0.50000000  1
  Mo  Mo3  1  0.75000000  0.25000000  0.50000000  1
  Mo  Mo4  1  0.12233614  0.12233614  0.24467229  1
  Mo  Mo5  1  0.87766386  0.87766386  0.75532771  1
