# generated using pymatgen
data_2926_Ga4In4
_symmetry_space_group_name_H-M   'P2_13'
_cell_length_a   5.73830512
_cell_length_b   5.73830512
_cell_length_c   5.73830512
_cell_angle_alpha   90.00000000
_cell_angle_beta   90.00000000
_cell_angle_gamma   90.00000000
_chemical_formula_structural   Ga4In4
_chemical_formula_sum   'Ga4 In4'
_cell_volume   188.95174678
loop_
 _symmetry_equiv_pos_site_id
 _symmetry_equiv_pos_as_xyz
  1  'x, y, z'
loop_
 _atom_type_symbol
  Ga
  In
loop_
 _atom_site_type_symbol
 _atom_site_label
 _atom_site_symmetry_multiplicity
 _atom_site_fract_x
 _atom_site_fract_y
 _atom_site_fract_z
 _atom_site_occupancy
  Ga  Ga0  1  0.59599568  0.59599568  0.40400432  1
  Ga  Ga1  1  0.90400432  0.40400432  0.90400432  1
  Ga  Ga2  1  0.40400432  0.09599568  0.09599568  1
  Ga  Ga3  1  0.09599568  0.90400432  0.59599568  1
  In  In0  1  0.90714132  0.90714132  0.09285868  1
  In  In1  1  0.59285868  0.09285868  0.59285868  1
  In  In2  1  0.09285868  0.40714132  0.40714132  1
  In  In3  1  0.40714132  0.59285868  0.90714132  1
