# generated using pymatgen
data_2927_K2Sn2
_symmetry_space_group_name_H-M   'Cmcm'
_cell_length_a   7.15536000
_cell_length_b   7.15536000
_cell_length_c   4.58728387
_cell_angle_alpha   90.00000000
_cell_angle_beta   90.00000000
_cell_angle_gamma   133.94955964
_chemical_formula_structural   K2Sn2
_chemical_formula_sum   'K2 Sn2'
_cell_volume   169.09142020
loop_
 _symmetry_equiv_pos_site_id
 _symmetry_equiv_pos_as_xyz
  1  'x, y, z'
loop_
 _atom_type_symbol
  K
  Sn
loop_
 _atom_site_type_symbol
 _atom_site_label
 _atom_site_symmetry_multiplicity
 _atom_site_fract_x
 _atom_site_fract_y
 _atom_site_fract_z
 _atom_site_occupancy
  K  K0  1  0.85295854  0.14704146  0.75000000  1
  K  K1  1  0.14704146  0.85295854  0.25000000  1
  Sn  Sn0  1  0.56563869  0.43436131  0.75000000  1
  Sn  Sn1  1  0.43436131  0.56563869  0.25000000  1
