# generated using pymatgen
data_2928_CsCu
_symmetry_space_group_name_H-M   'Pm -3 m'
_cell_length_a   4.29961645
_cell_length_b   4.29961645
_cell_length_c   4.29961645
_cell_angle_alpha   90.00000000
_cell_angle_beta   90.00000000
_cell_angle_gamma   90.00000000
_chemical_formula_structural   CsCu
_chemical_formula_sum   'Cs1 Cu1'
_cell_volume   79.48572638
loop_
 _symmetry_equiv_pos_site_id
 _symmetry_equiv_pos_as_xyz
  1  'x, y, z'
loop_
 _atom_type_symbol
  Cs
  Cu
loop_
 _atom_site_type_symbol
 _atom_site_label
 _atom_site_symmetry_multiplicity
 _atom_site_fract_x
 _atom_site_fract_y
 _atom_site_fract_z
 _atom_site_occupancy
  Cs  Cs0  1  0.00000000  0.00000000  0.00000000  1
  Cu  Cu0  1  0.50000172  0.50000172  0.50000172  1
