# generated using pymatgen
data_2929_K2Sn2
_symmetry_space_group_name_H-M   'Pmmn'
_cell_length_a   4.16494805
_cell_length_b   3.86076108
_cell_length_c   10.36109268
_cell_angle_alpha   90.00000000
_cell_angle_beta   90.00000000
_cell_angle_gamma   90.00000000
_chemical_formula_structural   K2Sn2
_chemical_formula_sum   'K2 Sn2'
_cell_volume   166.60501643
loop_
 _symmetry_equiv_pos_site_id
 _symmetry_equiv_pos_as_xyz
  1  'x, y, z'
loop_
 _atom_type_symbol
  K
  Sn
loop_
 _atom_site_type_symbol
 _atom_site_label
 _atom_site_symmetry_multiplicity
 _atom_site_fract_x
 _atom_site_fract_y
 _atom_site_fract_z
 _atom_site_occupancy
  K  K0  1  0.00000000  0.00000000  0.07882463  1
  K  K1  1  0.50000000  0.50000000  0.67117537  1
  Sn  Sn0  1  0.00000000  0.00000000  0.44060695  1
  Sn  Sn1  1  0.50000000  0.50000000  0.30939305  1
