# generated using pymatgen
data_2932_Pt8Sr16
_symmetry_space_group_name_H-M   'Fd -3 m'
_cell_length_a   10.38847209
_cell_length_b   10.38847209
_cell_length_c   10.38847209
_cell_angle_alpha   60.00000000
_cell_angle_beta   60.00000000
_cell_angle_gamma   60.00000000
_chemical_formula_structural   Pt8Sr16
_chemical_formula_sum   'Pt8 Sr16'
_cell_volume   792.75690592
loop_
 _symmetry_equiv_pos_site_id
 _symmetry_equiv_pos_as_xyz
  1  'x, y, z'
loop_
 _atom_type_symbol
  Pt
  Sr
loop_
 _atom_site_type_symbol
 _atom_site_label
 _atom_site_symmetry_multiplicity
 _atom_site_fract_x
 _atom_site_fract_y
 _atom_site_fract_z
 _atom_site_occupancy
  Pt  Pt0  1  0.73177183  0.73177183  0.80468450  1
  Pt  Pt1  1  0.73177183  0.73177183  0.23177183  1
  Pt  Pt2  1  0.73177183  0.30468450  0.23177183  1
  Pt  Pt3  1  0.30468450  0.73177183  0.23177183  1
  Pt  Pt4  1  0.26822817  0.26822817  0.19531550  1
  Pt  Pt5  1  0.26822817  0.26822817  0.76822817  1
  Pt  Pt6  1  0.26822817  0.69531550  0.76822817  1
  Pt  Pt7  1  0.69531550  0.26822817  0.76822817  1
  Sr  Sr0  1  0.00000000  0.50000000  0.00000000  1
  Sr  Sr1  1  0.50000000  0.00000000  0.00000000  1
  Sr  Sr2  1  0.50000000  0.50000000  0.00000000  1
  Sr  Sr3  1  0.50000000  0.50000000  0.50000000  1
  Sr  Sr4  1  0.92942006  0.92942006  0.82057994  1
  Sr  Sr5  1  0.92942006  0.32057994  0.82057994  1
  Sr  Sr6  1  0.32057994  0.92942006  0.82057994  1
  Sr  Sr7  1  0.92942006  0.32057994  0.42942006  1
  Sr  Sr8  1  0.32057994  0.92942006  0.42942006  1
  Sr  Sr9  1  0.32057994  0.32057994  0.42942006  1
  Sr  Sr10  1  0.07057994  0.07057994  0.17942006  1
  Sr  Sr11  1  0.07057994  0.67942006  0.17942006  1
  Sr  Sr12  1  0.67942006  0.07057994  0.17942006  1
  Sr  Sr13  1  0.07057994  0.67942006  0.57057994  1
  Sr  Sr14  1  0.67942006  0.07057994  0.57057994  1
  Sr  Sr15  1  0.67942006  0.67942006  0.57057994  1
