# generated using pymatgen
data_2940_AsBr5
_symmetry_space_group_name_H-M   'Cmmm'
_cell_length_a   7.05744166
_cell_length_b   7.05744166
_cell_length_c   6.56618143
_cell_angle_alpha   90.00000000
_cell_angle_beta   90.00000000
_cell_angle_gamma   148.87296305
_chemical_formula_structural   AsBr5
_chemical_formula_sum   'As1 Br5'
_cell_volume   169.06175260
loop_
 _symmetry_equiv_pos_site_id
 _symmetry_equiv_pos_as_xyz
  1  'x, y, z'
loop_
 _atom_type_symbol
  As
  Br
loop_
 _atom_site_type_symbol
 _atom_site_label
 _atom_site_symmetry_multiplicity
 _atom_site_fract_x
 _atom_site_fract_y
 _atom_site_fract_z
 _atom_site_occupancy
  As  As0  1  0.97250226  0.02749774  0.00000000  1
  Br  Br0  1  0.80307668  0.19692332  0.50000000  1
  Br  Br1  1  0.60542803  0.39457197  0.00000000  1
  Br  Br2  1  0.47196277  0.52803723  0.50000000  1
  Br  Br3  1  0.33948195  0.66051805  0.00000000  1
  Br  Br4  1  0.14088165  0.85911835  0.50000000  1
