# generated using pymatgen
data_2944_AlGa
_symmetry_space_group_name_H-M   'Cmmm'
_cell_length_a   2.89916588
_cell_length_b   2.89916588
_cell_length_c   4.90995151
_cell_angle_alpha   90.00000000
_cell_angle_beta   90.00000000
_cell_angle_gamma   121.07029216
_chemical_formula_structural   AlGa
_chemical_formula_sum   'Al1 Ga1'
_cell_volume   35.34828434
loop_
 _symmetry_equiv_pos_site_id
 _symmetry_equiv_pos_as_xyz
  1  'x, y, z'
loop_
 _atom_type_symbol
  Al
  Ga
loop_
 _atom_site_type_symbol
 _atom_site_label
 _atom_site_symmetry_multiplicity
 _atom_site_fract_x
 _atom_site_fract_y
 _atom_site_fract_z
 _atom_site_occupancy
  Al  Al0  1  0.00000000  0.00000000  0.00000000  1
  Ga  Ga0  1  0.50000000  0.50000000  0.50000000  1
