# generated using pymatgen
data_2947_PtSm
_symmetry_space_group_name_H-M   'Pm -3 m'
_cell_length_a   3.52988531
_cell_length_b   4.99201062
_cell_length_c   3.59299321
_cell_angle_alpha   90.00000000
_cell_angle_beta   90.00000000
_cell_angle_gamma   45.00000000
_chemical_formula_structural   PtSm
_chemical_formula_sum   'Pt1 Sm1'
_cell_volume   44.76901036
loop_
 _symmetry_equiv_pos_site_id
 _symmetry_equiv_pos_as_xyz
  1  'x, y, z'
loop_
 _atom_type_symbol
  Pt
  Sm
loop_
 _atom_site_type_symbol
 _atom_site_label
 _atom_site_symmetry_multiplicity
 _atom_site_fract_x
 _atom_site_fract_y
 _atom_site_fract_z
 _atom_site_occupancy
  Pt  Pt0  1  0.00000000  0.00000000  0.00000000  1
  Sm  Sm0  1  1.00000000  0.50000029  0.49999877  1
