# generated using pymatgen
data_2948_Au6Ba2
_symmetry_space_group_name_H-M   'Pmmn'
_cell_length_a   4.74176020
_cell_length_b   6.10981980
_cell_length_c   7.36722873
_cell_angle_alpha   90.00000000
_cell_angle_beta   90.00000000
_cell_angle_gamma   90.00000000
_chemical_formula_structural   Au6Ba2
_chemical_formula_sum   'Au6 Ba2'
_cell_volume   213.43819633
loop_
 _symmetry_equiv_pos_site_id
 _symmetry_equiv_pos_as_xyz
  1  'x, y, z'
loop_
 _atom_type_symbol
  Au
  Ba
loop_
 _atom_site_type_symbol
 _atom_site_label
 _atom_site_symmetry_multiplicity
 _atom_site_fract_x
 _atom_site_fract_y
 _atom_site_fract_z
 _atom_site_occupancy
  Au  Au0  1  0.50000000  0.80768319  0.00000000  1
  Au  Au1  1  0.00000000  0.19231681  0.50000000  1
  Au  Au2  1  0.00000000  0.86933683  0.20421270  1
  Au  Au3  1  0.00000000  0.86933683  0.79578730  1
  Au  Au4  1  0.50000000  0.13066317  0.70421270  1
  Au  Au5  1  0.50000000  0.13066317  0.29578730  1
  Ba  Ba0  1  0.00000000  0.36203333  0.00000000  1
  Ba  Ba1  1  0.50000000  0.63796667  0.50000000  1
