# generated using pymatgen
data_2951_AuW2
_symmetry_space_group_name_H-M   'I4/mmm'
_cell_length_a   6.87244968
_cell_length_b   6.87244968
_cell_length_c   6.87244968
_cell_angle_alpha   156.97255474
_cell_angle_beta   156.97255474
_cell_angle_gamma   32.79274737
_chemical_formula_structural   AuW2
_chemical_formula_sum   'Au1 W2'
_cell_volume   49.62448996
loop_
 _symmetry_equiv_pos_site_id
 _symmetry_equiv_pos_as_xyz
  1  'x, y, z'
loop_
 _atom_type_symbol
  Au
  W
loop_
 _atom_site_type_symbol
 _atom_site_label
 _atom_site_symmetry_multiplicity
 _atom_site_fract_x
 _atom_site_fract_y
 _atom_site_fract_z
 _atom_site_occupancy
  Au  Au0  1  0.00000000  0.00000000  0.00000000  1
  W  W0  1  0.33412589  0.33412589  0.00000000  1
  W  W1  1  0.66587411  0.66587411  0.00000000  1
