# generated using pymatgen
data_2952_AuP3
_symmetry_space_group_name_H-M   'Imm2'
_cell_length_a   5.54822103
_cell_length_b   5.54822103
_cell_length_c   5.54822103
_cell_angle_alpha   145.64224072
_cell_angle_beta   135.20324266
_cell_angle_gamma   57.64656622
_chemical_formula_structural   AuP3
_chemical_formula_sum   'Au1 P3'
_cell_volume   67.35988267
loop_
 _symmetry_equiv_pos_site_id
 _symmetry_equiv_pos_as_xyz
  1  'x, y, z'
loop_
 _atom_type_symbol
  Au
  P
loop_
 _atom_site_type_symbol
 _atom_site_label
 _atom_site_symmetry_multiplicity
 _atom_site_fract_x
 _atom_site_fract_y
 _atom_site_fract_z
 _atom_site_occupancy
  Au  Au0  1  0.07440509  1.00000000  0.07440509  1
  P  P0  1  0.56026958  0.50000000  0.06026958  1
  P  P1  1  0.78210143  0.18277209  0.59932933  1
  P  P2  1  0.41655724  0.81722791  0.59932933  1
