# generated using pymatgen
data_2953_MoV
_symmetry_space_group_name_H-M   'Pm -3 m'
_cell_length_a   4.34758802
_cell_length_b   3.07517079
_cell_length_c   5.31594290
_cell_angle_alpha   54.76981708
_cell_angle_beta   90.00000000
_cell_angle_gamma   90.00000000
_chemical_formula_structural   MoV
_chemical_formula_sum   'Mo2 V2'
_cell_volume   58.05445160
loop_
 _symmetry_equiv_pos_site_id
 _symmetry_equiv_pos_as_xyz
  1  'x, y, z'
loop_
 _atom_type_symbol
  Mo
  V
loop_
 _atom_site_type_symbol
 _atom_site_label
 _atom_site_symmetry_multiplicity
 _atom_site_fract_x
 _atom_site_fract_y
 _atom_site_fract_z
 _atom_site_occupancy
  Mo  Mo0  1  0.75000000  0.25030406  0.24941136  1
  Mo  Mo1  1  0.25000000  0.74969594  0.75058864  1
  V  V0  1  0.75000000  0.25056898  0.74933498  1
  V  V1  1  0.25000000  0.74943102  0.25066502  1
