# generated using pymatgen
data_2956_Cu3Mo
_symmetry_space_group_name_H-M   'Pmmm'
_cell_length_a   2.53546666
_cell_length_b   3.76953913
_cell_length_c   5.49424509
_cell_angle_alpha   90.00000000
_cell_angle_beta   90.00000000
_cell_angle_gamma   90.00000000
_chemical_formula_structural   Cu3Mo
_chemical_formula_sum   'Cu3 Mo1'
_cell_volume   52.51147157
loop_
 _symmetry_equiv_pos_site_id
 _symmetry_equiv_pos_as_xyz
  1  'x, y, z'
loop_
 _atom_type_symbol
  Cu
  Mo
loop_
 _atom_site_type_symbol
 _atom_site_label
 _atom_site_symmetry_multiplicity
 _atom_site_fract_x
 _atom_site_fract_y
 _atom_site_fract_z
 _atom_site_occupancy
  Cu  Cu0  1  0.00000000  0.00000000  0.98941827  1
  Cu  Cu1  1  0.00000000  0.00000000  0.51058173  1
  Cu  Cu2  1  0.50000000  0.50000000  0.75000000  1
  Mo  Mo0  1  0.50000000  0.50000000  0.25000000  1
