# generated using pymatgen
data_2970_Mo2W4
_symmetry_space_group_name_H-M   'I4_1/amd'
_cell_length_a   3.03603859
_cell_length_b   11.34181564
_cell_length_c   3.03603859
_cell_angle_alpha   82.30829547
_cell_angle_beta   90.00000000
_cell_angle_gamma   97.69170453
_chemical_formula_structural   Mo2W4
_chemical_formula_sum   'Mo2 W4'
_cell_volume   102.65366861
loop_
 _symmetry_equiv_pos_site_id
 _symmetry_equiv_pos_as_xyz
  1  'x, y, z'
loop_
 _atom_type_symbol
  Mo
  W
loop_
 _atom_site_type_symbol
 _atom_site_label
 _atom_site_symmetry_multiplicity
 _atom_site_fract_x
 _atom_site_fract_y
 _atom_site_fract_z
 _atom_site_occupancy
  Mo  Mo0  1  0.00000000  0.00000000  0.00000000  1
  Mo  Mo1  1  0.75000000  0.50000000  0.75000000  1
  W  W0  1  0.17383143  0.34766286  0.32616857  1
  W  W1  1  0.32616857  0.65233714  0.17383143  1
  W  W2  1  0.42383143  0.84766286  0.57616857  1
  W  W3  1  0.57616857  0.15233714  0.42383143  1
