# generated using pymatgen
data_2974_Pt4V2
_symmetry_space_group_name_H-M   'Cmcm'
_cell_length_a   2.73595476
_cell_length_b   7.32080239
_cell_length_c   4.58841147
_cell_angle_alpha   90.00000000
_cell_angle_beta   90.00000000
_cell_angle_gamma   79.23030864
_chemical_formula_structural   Pt4V2
_chemical_formula_sum   'Pt4 V2'
_cell_volume   90.28429716
loop_
 _symmetry_equiv_pos_site_id
 _symmetry_equiv_pos_as_xyz
  1  'x, y, z'
loop_
 _atom_type_symbol
  Pt
  V
loop_
 _atom_site_type_symbol
 _atom_site_label
 _atom_site_symmetry_multiplicity
 _atom_site_fract_x
 _atom_site_fract_y
 _atom_site_fract_z
 _atom_site_occupancy
  Pt  Pt0  1  0.98363148  0.03273704  0.00000000  1
  Pt  Pt1  1  0.23859074  0.52281851  0.50000000  1
  Pt  Pt2  1  0.55490135  0.89019729  0.50000000  1
  Pt  Pt3  1  0.66732087  0.66535826  0.00000000  1
  V  V0  1  0.32413010  0.35173981  0.00000000  1
  V  V1  1  0.89809213  0.20381575  0.50000000  1
