# generated using pymatgen
data_2988_Sr6Br18
_symmetry_space_group_name_H-M   'Pmmn'
_cell_length_a   7.86929072
_cell_length_b   5.69830727
_cell_length_c   18.24954415
_cell_angle_alpha   90.00000000
_cell_angle_beta   90.00000000
_cell_angle_gamma   90.00000000
_chemical_formula_structural   Sr6Br18
_chemical_formula_sum   'Br18 Sr6'
_cell_volume   818.33942542
loop_
 _symmetry_equiv_pos_site_id
 _symmetry_equiv_pos_as_xyz
  1  'x, y, z'
loop_
 _atom_type_symbol
  Br
  Sr
loop_
 _atom_site_type_symbol
 _atom_site_label
 _atom_site_symmetry_multiplicity
 _atom_site_fract_x
 _atom_site_fract_y
 _atom_site_fract_z
 _atom_site_occupancy
  Br  Br0  1  0.07801287  0.99864675  0.40853981  1
  Br  Br1  1  0.07801287  0.99864675  0.09146019  1
  Br  Br2  1  0.58397873  0.99954358  0.75000000  1
  Br  Br3  1  0.41602127  0.00045642  0.25000000  1
  Br  Br4  1  0.92198713  0.00135325  0.90853981  1
  Br  Br5  1  0.92198713  0.00135325  0.59146019  1
  Br  Br6  1  0.84873564  0.25000000  0.25000000  1
  Br  Br7  1  0.42396519  0.25000000  0.94477450  1
  Br  Br8  1  0.42396519  0.25000000  0.55522550  1
  Br  Br9  1  0.07801287  0.50135325  0.40853981  1
  Br  Br10  1  0.07801287  0.50135325  0.09146019  1
  Br  Br11  1  0.58397873  0.50045642  0.75000000  1
  Br  Br12  1  0.41602127  0.49954358  0.25000000  1
  Br  Br13  1  0.92198713  0.49864675  0.90853981  1
  Br  Br14  1  0.92198713  0.49864675  0.59146019  1
  Br  Br15  1  0.15126436  0.75000000  0.75000000  1
  Br  Br16  1  0.57603481  0.75000000  0.44477450  1
  Br  Br17  1  0.57603481  0.75000000  0.05522550  1
  Sr  Sr0  1  0.93188964  0.25000000  0.75000000  1
  Sr  Sr1  1  0.71279916  0.25000000  0.42924325  1
  Sr  Sr2  1  0.71279916  0.25000000  0.07075675  1
  Sr  Sr3  1  0.06811036  0.75000000  0.25000000  1
  Sr  Sr4  1  0.28720084  0.75000000  0.92924325  1
  Sr  Sr5  1  0.28720084  0.75000000  0.57075675  1
