# generated using pymatgen
data_2991_Al4Pd4
_symmetry_space_group_name_H-M   'Pnma'
_cell_length_a   4.26617570
_cell_length_b   5.29146780
_cell_length_c   5.37597516
_cell_angle_alpha   90.00000000
_cell_angle_beta   90.00000000
_cell_angle_gamma   90.00000000
_chemical_formula_structural   Al4Pd4
_chemical_formula_sum   'Al4 Pd4'
_cell_volume   121.35904457
loop_
 _symmetry_equiv_pos_site_id
 _symmetry_equiv_pos_as_xyz
  1  'x, y, z'
loop_
 _atom_type_symbol
  Al
  Pd
loop_
 _atom_site_type_symbol
 _atom_site_label
 _atom_site_symmetry_multiplicity
 _atom_site_fract_x
 _atom_site_fract_y
 _atom_site_fract_z
 _atom_site_occupancy
  Al  Al0  1  0.75000000  0.86333310  0.15535082  1
  Al  Al1  1  0.25000000  0.36333310  0.34464918  1
  Al  Al2  1  0.75000000  0.63666690  0.65535082  1
  Al  Al3  1  0.25000000  0.13666690  0.84464918  1
  Pd  Pd0  1  0.75000000  0.33530634  0.05891166  1
  Pd  Pd1  1  0.25000000  0.83530634  0.44108834  1
  Pd  Pd2  1  0.75000000  0.16469366  0.55891166  1
  Pd  Pd3  1  0.25000000  0.66469366  0.94108834  1
