# generated using pymatgen
data_2993_Ba8Cu4
_symmetry_space_group_name_H-M   'Pa -3'
_cell_length_a   8.05109280
_cell_length_b   8.05109280
_cell_length_c   8.05109280
_cell_angle_alpha   90.00000000
_cell_angle_beta   90.00000000
_cell_angle_gamma   90.00000000
_chemical_formula_structural   Ba8Cu4
_chemical_formula_sum   'Ba8 Cu4'
_cell_volume   521.87260236
loop_
 _symmetry_equiv_pos_site_id
 _symmetry_equiv_pos_as_xyz
  1  'x, y, z'
loop_
 _atom_type_symbol
  Ba
  Cu
loop_
 _atom_site_type_symbol
 _atom_site_label
 _atom_site_symmetry_multiplicity
 _atom_site_fract_x
 _atom_site_fract_y
 _atom_site_fract_z
 _atom_site_occupancy
  Ba  Ba0  1  0.66246467  0.66246467  0.33753533  1
  Ba  Ba1  1  0.33753533  0.33753533  0.66246467  1
  Ba  Ba2  1  0.16246467  0.83753533  0.66246467  1
  Ba  Ba3  1  0.83753533  0.16246467  0.33753533  1
  Ba  Ba4  1  0.33753533  0.16246467  0.16246467  1
  Ba  Ba5  1  0.66246467  0.83753533  0.83753533  1
  Ba  Ba6  1  0.83753533  0.33753533  0.83753533  1
  Ba  Ba7  1  0.16246467  0.66246467  0.16246467  1
  Cu  Cu0  1  0.00000000  0.00000000  0.00000000  1
  Cu  Cu1  1  0.50000000  0.50000000  0.00000000  1
  Cu  Cu2  1  0.50000000  0.00000000  0.50000000  1
  Cu  Cu3  1  0.00000000  0.50000000  0.50000000  1
