# generated using pymatgen
data_299_NbW3
_symmetry_space_group_name_H-M   'Cmmm'
_cell_length_a   4.99710819
_cell_length_b   4.99710819
_cell_length_c   2.88609086
_cell_angle_alpha   90.00000000
_cell_angle_beta   90.00000000
_cell_angle_gamma   109.44102559
_chemical_formula_structural   NbW3
_chemical_formula_sum   'Nb1 W3'
_cell_volume   67.95980050
loop_
 _symmetry_equiv_pos_site_id
 _symmetry_equiv_pos_as_xyz
  1  'x, y, z'
loop_
 _atom_type_symbol
  Nb
  W
loop_
 _atom_site_type_symbol
 _atom_site_label
 _atom_site_symmetry_multiplicity
 _atom_site_fract_x
 _atom_site_fract_y
 _atom_site_fract_z
 _atom_site_occupancy
  Nb  Nb0  1  0.00000000  0.00000000  0.00000000  1
  W  W0  1  0.00000000  0.50000000  0.50000000  1
  W  W1  1  0.50000000  0.00000000  0.50000000  1
  W  W2  1  0.50000000  0.50000000  0.00000000  1
