# generated using pymatgen
data_3002_Ir2Rh2
_symmetry_space_group_name_H-M   'P4/nmm'
_cell_length_a   2.72791048
_cell_length_b   2.72791048
_cell_length_c   7.73275008
_cell_angle_alpha   90.00000000
_cell_angle_beta   90.00000000
_cell_angle_gamma   90.00000000
_chemical_formula_structural   Ir2Rh2
_chemical_formula_sum   'Ir2 Rh2'
_cell_volume   57.54322559
loop_
 _symmetry_equiv_pos_site_id
 _symmetry_equiv_pos_as_xyz
  1  'x, y, z'
loop_
 _atom_type_symbol
  Ir
  Rh
loop_
 _atom_site_type_symbol
 _atom_site_label
 _atom_site_symmetry_multiplicity
 _atom_site_fract_x
 _atom_site_fract_y
 _atom_site_fract_z
 _atom_site_occupancy
  Ir  Ir0  1  0.25000000  0.25000000  0.12347947  1
  Ir  Ir1  1  0.75000000  0.75000000  0.87652053  1
  Rh  Rh0  1  0.25000000  0.25000000  0.62683347  1
  Rh  Rh1  1  0.75000000  0.75000000  0.37316653  1
