# generated using pymatgen
data_3003_Na2P2
_symmetry_space_group_name_H-M   'Imma'
_cell_length_a   6.03825827
_cell_length_b   6.03825827
_cell_length_c   6.03825827
_cell_angle_alpha   147.85322386
_cell_angle_beta   133.71245913
_cell_angle_gamma   57.47093243
_chemical_formula_structural   Na2P2
_chemical_formula_sum   'Na2 P2'
_cell_volume   84.02905577
loop_
 _symmetry_equiv_pos_site_id
 _symmetry_equiv_pos_as_xyz
  1  'x, y, z'
loop_
 _atom_type_symbol
  Na
  P
loop_
 _atom_site_type_symbol
 _atom_site_label
 _atom_site_symmetry_multiplicity
 _atom_site_fract_x
 _atom_site_fract_y
 _atom_site_fract_z
 _atom_site_occupancy
  Na  Na0  1  0.01547647  0.01547647  1.00000000  1
  Na  Na1  1  0.73452353  0.23452353  0.50000000  1
  P  P0  1  0.44684437  0.44684437  0.00000000  1
  P  P1  1  0.30315563  0.80315563  0.50000000  1
