# generated using pymatgen
data_3006_FeTa3
_symmetry_space_group_name_H-M   'Immm'
_cell_length_a   4.54623432
_cell_length_b   5.29326269
_cell_length_c   3.21341056
_cell_angle_alpha   72.32978428
_cell_angle_beta   90.00000000
_cell_angle_gamma   115.43176800
_chemical_formula_structural   FeTa3
_chemical_formula_sum   'Fe1 Ta3'
_cell_volume   65.77269211
loop_
 _symmetry_equiv_pos_site_id
 _symmetry_equiv_pos_as_xyz
  1  'x, y, z'
loop_
 _atom_type_symbol
  Fe
  Ta
loop_
 _atom_site_type_symbol
 _atom_site_label
 _atom_site_symmetry_multiplicity
 _atom_site_fract_x
 _atom_site_fract_y
 _atom_site_fract_z
 _atom_site_occupancy
  Fe  Fe0  1  0.00000000  0.00000000  0.00000000  1
  Ta  Ta0  1  0.23838733  0.47677466  0.26161267  1
  Ta  Ta1  1  0.50000000  0.00000000  0.50000000  1
  Ta  Ta2  1  0.76161267  0.52322534  0.73838733  1
