# generated using pymatgen
data_3009_AcTh
_symmetry_space_group_name_H-M   'P-6m2'
_cell_length_a   3.73803200
_cell_length_b   3.73803785
_cell_length_c   6.22782400
_cell_angle_alpha   90.00000000
_cell_angle_beta   90.00000000
_cell_angle_gamma   119.99993057
_chemical_formula_structural   AcTh
_chemical_formula_sum   'Ac1 Th1'
_cell_volume   75.36227068
loop_
 _symmetry_equiv_pos_site_id
 _symmetry_equiv_pos_as_xyz
  1  'x, y, z'
loop_
 _atom_type_symbol
  Ac
  Th
loop_
 _atom_site_type_symbol
 _atom_site_label
 _atom_site_symmetry_multiplicity
 _atom_site_fract_x
 _atom_site_fract_y
 _atom_site_fract_z
 _atom_site_occupancy
  Ac  Ac0  1  0.66666515  0.33333351  0.75000034  1
  Th  Th0  1  0.33333342  0.66666701  0.25000065  1
