# generated using pymatgen
data_300_Ag2Ca4
_symmetry_space_group_name_H-M   'I4/mcm'
_cell_length_a   6.25982990
_cell_length_b   6.25982990
_cell_length_c   6.25982990
_cell_angle_alpha   106.50166955
_cell_angle_beta   106.50166955
_cell_angle_gamma   115.58905280
_chemical_formula_structural   Ag2Ca4
_chemical_formula_sum   'Ag2 Ca4'
_cell_volume   187.19602516
loop_
 _symmetry_equiv_pos_site_id
 _symmetry_equiv_pos_as_xyz
  1  'x, y, z'
loop_
 _atom_type_symbol
  Ag
  Ca
loop_
 _atom_site_type_symbol
 _atom_site_label
 _atom_site_symmetry_multiplicity
 _atom_site_fract_x
 _atom_site_fract_y
 _atom_site_fract_z
 _atom_site_occupancy
  Ag  Ag0  1  0.75000000  0.75000000  0.00000000  1
  Ag  Ag1  1  0.25000000  0.25000000  0.00000000  1
  Ca  Ca0  1  0.32516585  0.17483415  0.50000000  1
  Ca  Ca1  1  0.67483415  0.82516585  0.50000000  1
  Ca  Ca2  1  0.17483415  0.67483415  0.84966830  1
  Ca  Ca3  1  0.82516585  0.32516585  0.15033170  1
