# generated using pymatgen
data_3010_IrNi2
_symmetry_space_group_name_H-M   'Immm'
_cell_length_a   3.73143378
_cell_length_b   7.27967189
_cell_length_c   2.64840255
_cell_angle_alpha   90.00000000
_cell_angle_beta   90.00000000
_cell_angle_gamma   90.00000000
_chemical_formula_structural   IrNi2
_chemical_formula_sum   'Ir2 Ni4'
_cell_volume   71.94018352
loop_
 _symmetry_equiv_pos_site_id
 _symmetry_equiv_pos_as_xyz
  1  'x, y, z'
loop_
 _atom_type_symbol
  Ir
  Ni
loop_
 _atom_site_type_symbol
 _atom_site_label
 _atom_site_symmetry_multiplicity
 _atom_site_fract_x
 _atom_site_fract_y
 _atom_site_fract_z
 _atom_site_occupancy
  Ir  Ir0  1  0.00000000  0.00000000  0.00000000  1
  Ir  Ir1  1  0.50000000  0.50000000  0.50000000  1
  Ni  Ni0  1  0.99750076  0.33609486  0.00000000  1
  Ni  Ni1  1  0.50249924  0.83609486  0.50000000  1
  Ni  Ni2  1  0.49750076  0.16390514  0.50000000  1
  Ni  Ni3  1  0.00249924  0.66390514  0.00000000  1
