# generated using pymatgen
data_3011_IrTa5
_symmetry_space_group_name_H-M   'C2/m'
_cell_length_a   3.31765992
_cell_length_b   5.41900006
_cell_length_c   6.47979686
_cell_angle_alpha   72.20007691
_cell_angle_beta   90.00000000
_cell_angle_gamma   72.17482290
_chemical_formula_structural   IrTa5
_chemical_formula_sum   'Ir1 Ta5'
_cell_volume   105.03074344
loop_
 _symmetry_equiv_pos_site_id
 _symmetry_equiv_pos_as_xyz
  1  'x, y, z'
loop_
 _atom_type_symbol
  Ir
  Ta
loop_
 _atom_site_type_symbol
 _atom_site_label
 _atom_site_symmetry_multiplicity
 _atom_site_fract_x
 _atom_site_fract_y
 _atom_site_fract_z
 _atom_site_occupancy
  Ir  Ir0  1  0.97184878  0.05630243  0.94472725  1
  Ta  Ta0  1  0.63764037  0.72471926  0.77861287  1
  Ta  Ta1  1  0.30808303  0.38383394  0.61382456  1
  Ta  Ta2  1  0.97257755  0.05484490  0.44417197  1
  Ta  Ta3  1  0.63686867  0.72626265  0.27541869  1
  Ta  Ta4  1  0.30631492  0.38737015  0.10991133  1
