# generated using pymatgen
data_3012_Sr3Sb
_symmetry_space_group_name_H-M   'Immm'
_cell_length_a   7.82178827
_cell_length_b   7.82178827
_cell_length_c   7.82178827
_cell_angle_alpha   147.64588805
_cell_angle_beta   136.66796032
_cell_angle_gamma   55.09999586
_chemical_formula_structural   Sr3Sb
_chemical_formula_sum   'Sb1 Sr3'
_cell_volume   174.56511985
loop_
 _symmetry_equiv_pos_site_id
 _symmetry_equiv_pos_as_xyz
  1  'x, y, z'
loop_
 _atom_type_symbol
  Sb
  Sr
loop_
 _atom_site_type_symbol
 _atom_site_label
 _atom_site_symmetry_multiplicity
 _atom_site_fract_x
 _atom_site_fract_y
 _atom_site_fract_z
 _atom_site_occupancy
  Sb  Sb0  1  0.08422799  0.00000000  0.08422799  1
  Sr  Sr0  1  0.58417821  0.50000000  0.08417821  1
  Sr  Sr1  1  0.89753682  0.31507325  0.58246356  1
  Sr  Sr2  1  0.26739031  0.68492675  0.58246356  1
