# generated using pymatgen
data_3016_NaBr
_symmetry_space_group_name_H-M   'Fm -3 m'
_cell_length_a   4.20314170
_cell_length_b   4.20314170
_cell_length_c   4.20314170
_cell_angle_alpha   120.00000000
_cell_angle_beta   90.00000000
_cell_angle_gamma   120.00000000
_chemical_formula_structural   NaBr
_chemical_formula_sum   'Br1 Na1'
_cell_volume   52.50577795
loop_
 _symmetry_equiv_pos_site_id
 _symmetry_equiv_pos_as_xyz
  1  'x, y, z'
loop_
 _atom_type_symbol
  Br
  Na
loop_
 _atom_site_type_symbol
 _atom_site_label
 _atom_site_symmetry_multiplicity
 _atom_site_fract_x
 _atom_site_fract_y
 _atom_site_fract_z
 _atom_site_occupancy
  Br  Br0  1  0.50000002  1.00000000  0.50000002  1
  Na  Na0  1  0.00000000  0.00000000  0.00000000  1
