# generated using pymatgen
data_3018_Cu5Br3
_symmetry_space_group_name_H-M   'Cmmm'
_cell_length_a   6.86020216
_cell_length_b   6.86020216
_cell_length_c   3.83081389
_cell_angle_alpha   90.00000000
_cell_angle_beta   90.00000000
_cell_angle_gamma   121.95601202
_chemical_formula_structural   Cu5Br3
_chemical_formula_sum   'Br3 Cu5'
_cell_volume   152.96551482
loop_
 _symmetry_equiv_pos_site_id
 _symmetry_equiv_pos_as_xyz
  1  'x, y, z'
loop_
 _atom_type_symbol
  Br
  Cu
loop_
 _atom_site_type_symbol
 _atom_site_label
 _atom_site_symmetry_multiplicity
 _atom_site_fract_x
 _atom_site_fract_y
 _atom_site_fract_z
 _atom_site_occupancy
  Br  Br0  1  0.50000000  0.50000000  0.00000000  1
  Br  Br1  1  0.74353019  0.25646981  0.50000000  1
  Br  Br2  1  0.25646981  0.74353019  0.50000000  1
  Cu  Cu0  1  0.00000000  0.00000000  0.00000000  1
  Cu  Cu1  1  0.00000000  0.50000000  0.00000000  1
  Cu  Cu2  1  0.50000000  0.00000000  0.00000000  1
  Cu  Cu3  1  0.20755982  0.20755982  0.50000000  1
  Cu  Cu4  1  0.79244018  0.79244018  0.50000000  1
