# generated using pymatgen
data_3020_Au4Ni3
_symmetry_space_group_name_H-M   'I4/mmm'
_cell_length_a   2.92030997
_cell_length_b   12.56846481
_cell_length_c   2.92030997
_cell_angle_alpha   83.32853574
_cell_angle_beta   90.00000000
_cell_angle_gamma   96.67146426
_chemical_formula_structural   Au4Ni3
_chemical_formula_sum   'Au4 Ni3'
_cell_volume   105.72993077
loop_
 _symmetry_equiv_pos_site_id
 _symmetry_equiv_pos_as_xyz
  1  'x, y, z'
loop_
 _atom_type_symbol
  Au
  Ni
loop_
 _atom_site_type_symbol
 _atom_site_label
 _atom_site_symmetry_multiplicity
 _atom_site_fract_x
 _atom_site_fract_y
 _atom_site_fract_z
 _atom_site_occupancy
  Au  Au0  1  0.15506976  0.31013951  0.84493024  1
  Au  Au1  1  0.43133426  0.86266852  0.56866574  1
  Au  Au2  1  0.56866574  0.13733148  0.43133426  1
  Au  Au3  1  0.84493024  0.68986049  0.15506976  1
  Ni  Ni0  1  0.00000000  0.00000000  0.00000000  1
  Ni  Ni1  1  0.27515340  0.55030681  0.72484660  1
  Ni  Ni2  1  0.72484660  0.44969319  0.27515340  1
