# generated using pymatgen
data_3021_Ir2Rh6
_symmetry_space_group_name_H-M   'I4/mmm'
_cell_length_a   3.84629981
_cell_length_b   3.84629981
_cell_length_c   8.15935573
_cell_angle_alpha   76.36718501
_cell_angle_beta   76.36718501
_cell_angle_gamma   90.00000000
_chemical_formula_structural   Ir2Rh6
_chemical_formula_sum   'Ir2 Rh6'
_cell_volume   113.80639938
loop_
 _symmetry_equiv_pos_site_id
 _symmetry_equiv_pos_as_xyz
  1  'x, y, z'
loop_
 _atom_type_symbol
  Ir
  Rh
loop_
 _atom_site_type_symbol
 _atom_site_label
 _atom_site_symmetry_multiplicity
 _atom_site_fract_x
 _atom_site_fract_y
 _atom_site_fract_z
 _atom_site_occupancy
  Ir  Ir0  1  0.62577050  0.62577050  0.74845900  1
  Ir  Ir1  1  0.37422950  0.37422950  0.25154100  1
  Rh  Rh0  1  0.00000000  0.50000000  0.00000000  1
  Rh  Rh1  1  0.87582905  0.87582905  0.24834189  1
  Rh  Rh2  1  0.12417095  0.12417095  0.75165811  1
  Rh  Rh3  1  0.75000000  0.25000000  0.50000000  1
  Rh  Rh4  1  0.25000000  0.75000000  0.50000000  1
  Rh  Rh5  1  0.50000000  0.00000000  0.00000000  1
