# generated using pymatgen
data_3023_Ca4Sb2
_symmetry_space_group_name_H-M   'Imma'
_cell_length_a   4.11201466
_cell_length_b   14.72016346
_cell_length_c   3.64173564
_cell_angle_alpha   82.89437571
_cell_angle_beta   90.00000000
_cell_angle_gamma   98.02891651
_chemical_formula_structural   Ca4Sb2
_chemical_formula_sum   'Ca4 Sb2'
_cell_volume   216.56193728
loop_
 _symmetry_equiv_pos_site_id
 _symmetry_equiv_pos_as_xyz
  1  'x, y, z'
loop_
 _atom_type_symbol
  Ca
  Sb
loop_
 _atom_site_type_symbol
 _atom_site_label
 _atom_site_symmetry_multiplicity
 _atom_site_fract_x
 _atom_site_fract_y
 _atom_site_fract_z
 _atom_site_occupancy
  Ca  Ca0  1  0.31229240  0.12458481  0.93770760  1
  Ca  Ca1  1  0.68770760  0.87541519  0.06229240  1
  Ca  Ca2  1  0.43676798  0.37353596  0.81323202  1
  Ca  Ca3  1  0.56323202  0.62646404  0.18676798  1
  Sb  Sb0  1  0.87487749  0.24975498  0.37512251  1
  Sb  Sb1  1  0.12512251  0.75024502  0.62487749  1
