# generated using pymatgen
data_3025_Ag2Nb4
_symmetry_space_group_name_H-M   'Pnnm'
_cell_length_a   2.63199395
_cell_length_b   8.10486949
_cell_length_c   4.80181915
_cell_angle_alpha   90.00000000
_cell_angle_beta   90.00000000
_cell_angle_gamma   90.00000000
_chemical_formula_structural   Ag2Nb4
_chemical_formula_sum   'Ag2 Nb4'
_cell_volume   102.43224987
loop_
 _symmetry_equiv_pos_site_id
 _symmetry_equiv_pos_as_xyz
  1  'x, y, z'
loop_
 _atom_type_symbol
  Ag
  Nb
loop_
 _atom_site_type_symbol
 _atom_site_label
 _atom_site_symmetry_multiplicity
 _atom_site_fract_x
 _atom_site_fract_y
 _atom_site_fract_z
 _atom_site_occupancy
  Ag  Ag0  1  0.00000000  0.00000000  0.00000000  1
  Ag  Ag1  1  0.50000000  0.50000000  0.50000000  1
  Nb  Nb0  1  0.13111732  0.33534647  0.00000000  1
  Nb  Nb1  1  0.36888268  0.83534647  0.50000000  1
  Nb  Nb2  1  0.63111732  0.16465353  0.50000000  1
  Nb  Nb3  1  0.86888268  0.66465353  0.00000000  1
