# generated using pymatgen
data_3027_NbU
_symmetry_space_group_name_H-M   'P4/mmm'
_cell_length_a   2.79629195
_cell_length_b   3.95455500
_cell_length_c   5.06196700
_cell_angle_alpha   90.00000000
_cell_angle_beta   90.00000000
_cell_angle_gamma   45.00000000
_chemical_formula_structural   NbU
_chemical_formula_sum   'Nb1 U1'
_cell_volume   39.58078874
loop_
 _symmetry_equiv_pos_site_id
 _symmetry_equiv_pos_as_xyz
  1  'x, y, z'
loop_
 _atom_type_symbol
  Nb
  U
loop_
 _atom_site_type_symbol
 _atom_site_label
 _atom_site_symmetry_multiplicity
 _atom_site_fract_x
 _atom_site_fract_y
 _atom_site_fract_z
 _atom_site_occupancy
  Nb  Nb0  1  0.00000000  0.00000000  0.00000000  1
  U  U0  1  0.99999998  0.50000063  0.49999927  1
