# generated using pymatgen
data_302_CuK
_symmetry_space_group_name_H-M   'Pm -3 m'
_cell_length_a   3.93447639
_cell_length_b   3.93447639
_cell_length_c   3.95480096
_cell_angle_alpha   90.00000000
_cell_angle_beta   90.00000000
_cell_angle_gamma   90.00000000
_chemical_formula_structural   CuK
_chemical_formula_sum   'Cu1 K1'
_cell_volume   61.22073199
loop_
 _symmetry_equiv_pos_site_id
 _symmetry_equiv_pos_as_xyz
  1  'x, y, z'
loop_
 _atom_type_symbol
  Cu
  K
loop_
 _atom_site_type_symbol
 _atom_site_label
 _atom_site_symmetry_multiplicity
 _atom_site_fract_x
 _atom_site_fract_y
 _atom_site_fract_z
 _atom_site_occupancy
  Cu  Cu0  1  0.00000000  0.00000000  0.00000000  1
  K  K0  1  0.50000000  0.50000000  0.50000000  1
