# generated using pymatgen
data_3040_AcK
_symmetry_space_group_name_H-M   'P-6m2'
_cell_length_a   3.98649700
_cell_length_b   3.98649270
_cell_length_c   7.48521400
_cell_angle_alpha   90.00017241
_cell_angle_beta   90.00000000
_cell_angle_gamma   120.00002737
_chemical_formula_structural   AcK
_chemical_formula_sum   'Ac1 K1'
_cell_volume   103.01895688
loop_
 _symmetry_equiv_pos_site_id
 _symmetry_equiv_pos_as_xyz
  1  'x, y, z'
loop_
 _atom_type_symbol
  Ac
  K
loop_
 _atom_site_type_symbol
 _atom_site_label
 _atom_site_symmetry_multiplicity
 _atom_site_fract_x
 _atom_site_fract_y
 _atom_site_fract_z
 _atom_site_occupancy
  Ac  Ac0  1  0.66666687  0.33333292  0.75000017  1
  K  K0  1  0.33333347  0.66666694  0.25000006  1
