# generated using pymatgen
data_304_AlCu5
_symmetry_space_group_name_H-M   'Cmmm'
_cell_length_a   5.75726338
_cell_length_b   5.75726338
_cell_length_c   3.67857652
_cell_angle_alpha   90.00000000
_cell_angle_beta   90.00000000
_cell_angle_gamma   143.01823737
_chemical_formula_structural   AlCu5
_chemical_formula_sum   'Al1 Cu5'
_cell_volume   73.34854569
loop_
 _symmetry_equiv_pos_site_id
 _symmetry_equiv_pos_as_xyz
  1  'x, y, z'
loop_
 _atom_type_symbol
  Al
  Cu
loop_
 _atom_site_type_symbol
 _atom_site_label
 _atom_site_symmetry_multiplicity
 _atom_site_fract_x
 _atom_site_fract_y
 _atom_site_fract_z
 _atom_site_occupancy
  Al  Al0  1  0.97222390  0.02777610  0.00000000  1
  Cu  Cu0  1  0.80381582  0.19618418  0.50000000  1
  Cu  Cu1  1  0.63841587  0.36158413  0.00000000  1
  Cu  Cu2  1  0.47222492  0.52777508  0.50000000  1
  Cu  Cu3  1  0.30601980  0.69398020  0.00000000  1
  Cu  Cu4  1  0.14063303  0.85936697  0.50000000  1
