# generated using pymatgen
data_3053_W5As
_symmetry_space_group_name_H-M   'Cmmm'
_cell_length_a   7.03583896
_cell_length_b   7.03583896
_cell_length_c   4.40469324
_cell_angle_alpha   90.00000000
_cell_angle_beta   90.00000000
_cell_angle_gamma   153.87120317
_chemical_formula_structural   W5As
_chemical_formula_sum   'As1 W5'
_cell_volume   96.02522941
loop_
 _symmetry_equiv_pos_site_id
 _symmetry_equiv_pos_as_xyz
  1  'x, y, z'
loop_
 _atom_type_symbol
  As
  W
loop_
 _atom_site_type_symbol
 _atom_site_label
 _atom_site_symmetry_multiplicity
 _atom_site_fract_x
 _atom_site_fract_y
 _atom_site_fract_z
 _atom_site_occupancy
  As  As0  1  0.97189018  0.02810982  0.00000000  1
  W  W0  1  0.30361993  0.69638007  0.00000000  1
  W  W1  1  0.64098588  0.35901412  0.00000000  1
  W  W2  1  0.47233501  0.52766499  0.50000000  1
  W  W3  1  0.80447609  0.19552391  0.50000000  1
  W  W4  1  0.14002625  0.85997375  0.50000000  1
