# generated using pymatgen
data_3059_Ba4P2
_symmetry_space_group_name_H-M   'I4_1/amd'
_cell_length_a   16.40463767
_cell_length_b   16.40463767
_cell_length_c   16.40463767
_cell_angle_alpha   165.87669308
_cell_angle_beta   165.87609563
_cell_angle_gamma   20.02502810
_chemical_formula_structural   Ba4P2
_chemical_formula_sum   'Ba4 P2'
_cell_volume   262.83325656
loop_
 _symmetry_equiv_pos_site_id
 _symmetry_equiv_pos_as_xyz
  1  'x, y, z'
loop_
 _atom_type_symbol
  Ba
  P
loop_
 _atom_site_type_symbol
 _atom_site_label
 _atom_site_symmetry_multiplicity
 _atom_site_fract_x
 _atom_site_fract_y
 _atom_site_fract_z
 _atom_site_occupancy
  Ba  Ba0  1  0.32258597  0.07258597  0.25000000  1
  Ba  Ba1  1  0.67741403  0.92741403  0.75000000  1
  Ba  Ba2  1  0.42728687  0.17728687  0.25000000  1
  Ba  Ba3  1  0.57271313  0.82271313  0.75000000  1
  P  P0  1  0.87495199  0.62495199  0.25000000  1
  P  P1  1  0.12504801  0.37504801  0.75000000  1
