# generated using pymatgen
data_3060_Mo3V
_symmetry_space_group_name_H-M   'Immm'
_cell_length_a   5.17676743
_cell_length_b   5.17676743
_cell_length_c   5.17676743
_cell_angle_alpha   144.83930313
_cell_angle_beta   129.45706390
_cell_angle_gamma   63.06110967
_chemical_formula_structural   Mo3V
_chemical_formula_sum   'Mo3 V1'
_cell_volume   60.99051606
loop_
 _symmetry_equiv_pos_site_id
 _symmetry_equiv_pos_as_xyz
  1  'x, y, z'
loop_
 _atom_type_symbol
  Mo
  V
loop_
 _atom_site_type_symbol
 _atom_site_label
 _atom_site_symmetry_multiplicity
 _atom_site_fract_x
 _atom_site_fract_y
 _atom_site_fract_z
 _atom_site_occupancy
  Mo  Mo0  1  0.25045958  0.25045958  1.00000000  1
  Mo  Mo1  1  0.74954042  0.74954042  1.00000000  1
  Mo  Mo2  1  0.00000000  0.50000000  0.50000000  1
  V  V0  1  0.50000000  0.00000000  0.50000000  1
