# generated using pymatgen
data_3063_Mn4P2
_symmetry_space_group_name_H-M   'Pnnm'
_cell_length_a   3.27848792
_cell_length_b   4.57251309
_cell_length_c   5.57492129
_cell_angle_alpha   90.00000000
_cell_angle_beta   90.00000000
_cell_angle_gamma   90.00000000
_chemical_formula_structural   Mn4P2
_chemical_formula_sum   'Mn4 P2'
_cell_volume   83.57324885
loop_
 _symmetry_equiv_pos_site_id
 _symmetry_equiv_pos_as_xyz
  1  'x, y, z'
loop_
 _atom_type_symbol
  Mn
  P
loop_
 _atom_site_type_symbol
 _atom_site_label
 _atom_site_symmetry_multiplicity
 _atom_site_fract_x
 _atom_site_fract_y
 _atom_site_fract_z
 _atom_site_occupancy
  Mn  Mn0  1  0.00000000  0.22516092  0.64612301  1
  Mn  Mn1  1  0.00000000  0.77483908  0.35387699  1
  Mn  Mn2  1  0.50000000  0.72516092  0.85387699  1
  Mn  Mn3  1  0.50000000  0.27483908  0.14612301  1
  P  P0  1  0.00000000  0.00000000  0.00000000  1
  P  P1  1  0.50000000  0.50000000  0.50000000  1
