# generated using pymatgen
data_3068_Pt4Rh8
_symmetry_space_group_name_H-M   'Pa -3'
_cell_length_a   6.04092664
_cell_length_b   6.04092664
_cell_length_c   6.04092664
_cell_angle_alpha   90.00000000
_cell_angle_beta   90.00000000
_cell_angle_gamma   90.00000000
_chemical_formula_structural   Pt4Rh8
_chemical_formula_sum   'Pt4 Rh8'
_cell_volume   220.45029549
loop_
 _symmetry_equiv_pos_site_id
 _symmetry_equiv_pos_as_xyz
  1  'x, y, z'
loop_
 _atom_type_symbol
  Pt
  Rh
loop_
 _atom_site_type_symbol
 _atom_site_label
 _atom_site_symmetry_multiplicity
 _atom_site_fract_x
 _atom_site_fract_y
 _atom_site_fract_z
 _atom_site_occupancy
  Pt  Pt0  1  0.00000000  0.00000000  0.00000000  1
  Pt  Pt1  1  0.50000000  0.50000000  0.00000000  1
  Pt  Pt2  1  0.50000000  0.00000000  0.50000000  1
  Pt  Pt3  1  0.00000000  0.50000000  0.50000000  1
  Rh  Rh0  1  0.38483790  0.38483790  0.38483790  1
  Rh  Rh1  1  0.61516210  0.61516210  0.61516210  1
  Rh  Rh2  1  0.88483790  0.11516210  0.61516210  1
  Rh  Rh3  1  0.11516210  0.88483790  0.38483790  1
  Rh  Rh4  1  0.61516210  0.88483790  0.11516210  1
  Rh  Rh5  1  0.38483790  0.11516210  0.88483790  1
  Rh  Rh6  1  0.11516210  0.61516210  0.88483790  1
  Rh  Rh7  1  0.88483790  0.38483790  0.11516210  1
