# generated using pymatgen
data_3074_Ag2Mn
_symmetry_space_group_name_H-M   'Immm'
_cell_length_a   3.89528763
_cell_length_b   8.64296153
_cell_length_c   3.00652445
_cell_angle_alpha   90.00000000
_cell_angle_beta   90.00000000
_cell_angle_gamma   90.00000000
_chemical_formula_structural   Ag2Mn
_chemical_formula_sum   'Ag4 Mn2'
_cell_volume   101.22012089
loop_
 _symmetry_equiv_pos_site_id
 _symmetry_equiv_pos_as_xyz
  1  'x, y, z'
loop_
 _atom_type_symbol
  Ag
  Mn
loop_
 _atom_site_type_symbol
 _atom_site_label
 _atom_site_symmetry_multiplicity
 _atom_site_fract_x
 _atom_site_fract_y
 _atom_site_fract_z
 _atom_site_occupancy
  Ag  Ag0  1  0.00017029  0.33650647  0.00000000  1
  Ag  Ag1  1  0.49982971  0.83650647  0.50000000  1
  Ag  Ag2  1  0.50017029  0.16349353  0.50000000  1
  Ag  Ag3  1  0.99982971  0.66349353  0.00000000  1
  Mn  Mn0  1  0.00000000  0.00000000  0.00000000  1
  Mn  Mn1  1  0.50000000  0.50000000  0.50000000  1
