# generated using pymatgen
data_3075_Mo4V8
_symmetry_space_group_name_H-M   'Pnma'
_cell_length_a   5.11478691
_cell_length_b   4.39899007
_cell_length_c   7.65992120
_cell_angle_alpha   90.00000000
_cell_angle_beta   90.00000000
_cell_angle_gamma   90.00000000
_chemical_formula_structural   Mo4V8
_chemical_formula_sum   'Mo4 V8'
_cell_volume   172.34743670
loop_
 _symmetry_equiv_pos_site_id
 _symmetry_equiv_pos_as_xyz
  1  'x, y, z'
loop_
 _atom_type_symbol
  Mo
  V
loop_
 _atom_site_type_symbol
 _atom_site_label
 _atom_site_symmetry_multiplicity
 _atom_site_fract_x
 _atom_site_fract_y
 _atom_site_fract_z
 _atom_site_occupancy
  Mo  Mo0  1  0.17404785  0.25000000  0.90932284  1
  Mo  Mo1  1  0.32595215  0.75000000  0.40932284  1
  Mo  Mo2  1  0.67404785  0.25000000  0.59067716  1
  Mo  Mo3  1  0.82595215  0.75000000  0.09067716  1
  V  V0  1  0.01131772  0.25000000  0.24317186  1
  V  V1  1  0.17435399  0.25000000  0.56576995  1
  V  V2  1  0.32564601  0.75000000  0.06576995  1
  V  V3  1  0.48868228  0.75000000  0.74317186  1
  V  V4  1  0.51131772  0.25000000  0.25682814  1
  V  V5  1  0.67435399  0.25000000  0.93423005  1
  V  V6  1  0.82564601  0.75000000  0.43423005  1
  V  V7  1  0.98868228  0.75000000  0.75682814  1
