# generated using pymatgen
data_3078_Al3Sn3
_symmetry_space_group_name_H-M   'Cm'
_cell_length_a   5.95090300
_cell_length_b   5.95090300
_cell_length_c   7.91166318
_cell_angle_alpha   71.29899987
_cell_angle_beta   71.29899987
_cell_angle_gamma   30.98222947
_chemical_formula_structural   Al3Sn3
_chemical_formula_sum   'Al3 Sn3'
_cell_volume   136.01058128
loop_
 _symmetry_equiv_pos_site_id
 _symmetry_equiv_pos_as_xyz
  1  'x, y, z'
loop_
 _atom_type_symbol
  Al
  Sn
loop_
 _atom_site_type_symbol
 _atom_site_label
 _atom_site_symmetry_multiplicity
 _atom_site_fract_x
 _atom_site_fract_y
 _atom_site_fract_z
 _atom_site_occupancy
  Al  Al0  1  0.01044058  0.01044058  0.98375797  1
  Al  Al1  1  0.67938246  0.67938246  0.71071126  1
  Al  Al2  1  0.57777520  0.57777520  0.23422460  1
  Sn  Sn0  1  0.29289971  0.29289971  0.36387822  1
  Sn  Sn1  1  0.98378523  0.98378523  0.58348628  1
  Sn  Sn2  1  0.28905015  0.28905015  0.95727501  1
