# generated using pymatgen
data_3085_Au2Nb4
_symmetry_space_group_name_H-M   'C2/m'
_cell_length_a   2.77261133
_cell_length_b   5.64933509
_cell_length_c   7.31076672
_cell_angle_alpha   103.24460067
_cell_angle_beta   90.00000000
_cell_angle_gamma   75.79495691
_chemical_formula_structural   Au2Nb4
_chemical_formula_sum   'Au2 Nb4'
_cell_volume   107.86547226
loop_
 _symmetry_equiv_pos_site_id
 _symmetry_equiv_pos_as_xyz
  1  'x, y, z'
loop_
 _atom_type_symbol
  Au
  Nb
loop_
 _atom_site_type_symbol
 _atom_site_label
 _atom_site_symmetry_multiplicity
 _atom_site_fract_x
 _atom_site_fract_y
 _atom_site_fract_z
 _atom_site_occupancy
  Au  Au0  1  0.00281366  0.99437268  0.98709756  1
  Au  Au1  1  0.60829745  0.78340509  0.29068022  1
  Nb  Nb0  1  0.67668429  0.64663143  0.65258689  1
  Nb  Nb1  1  0.34284627  0.31430745  0.31480884  1
  Nb  Nb2  1  0.26826484  0.46347033  0.96296894  1
  Nb  Nb3  1  0.93442682  0.13114635  0.62519089  1
