# generated using pymatgen
data_3086_K4Sn16
_symmetry_space_group_name_H-M   'I-43m'
_cell_length_a   9.51951086
_cell_length_b   9.51951086
_cell_length_c   9.51951086
_cell_angle_alpha   109.47122063
_cell_angle_beta   109.47122063
_cell_angle_gamma   109.47122063
_chemical_formula_structural   K4Sn16
_chemical_formula_sum   'K4 Sn16'
_cell_volume   664.08246174
loop_
 _symmetry_equiv_pos_site_id
 _symmetry_equiv_pos_as_xyz
  1  'x, y, z'
loop_
 _atom_type_symbol
  K
  Sn
loop_
 _atom_site_type_symbol
 _atom_site_label
 _atom_site_symmetry_multiplicity
 _atom_site_fract_x
 _atom_site_fract_y
 _atom_site_fract_z
 _atom_site_occupancy
  K  K0  1  0.44208386  0.44208386  0.44208386  1
  K  K1  1  0.55791614  0.00000000  0.00000000  1
  K  K2  1  0.00000000  0.55791614  0.00000000  1
  K  K3  1  0.00000000  0.00000000  0.55791614  1
  Sn  Sn0  1  0.79928415  0.79928415  0.79928415  1
  Sn  Sn1  1  0.20071585  0.00000000  0.00000000  1
  Sn  Sn2  1  1.00000000  0.20071585  0.00000000  1
  Sn  Sn3  1  1.00000000  1.00000000  0.20071585  1
  Sn  Sn4  1  0.65066639  0.65066639  0.00000000  1
  Sn  Sn5  1  0.34933361  0.34933361  0.00000000  1
  Sn  Sn6  1  0.65066639  0.00000000  0.65066639  1
  Sn  Sn7  1  0.34933361  0.00000000  0.34933361  1
  Sn  Sn8  1  1.00000000  0.65066639  0.65066639  1
  Sn  Sn9  1  1.00000000  0.34933361  0.34933361  1
  Sn  Sn10  1  0.24930662  0.74930662  0.50000000  1
  Sn  Sn11  1  0.75069338  0.25069338  0.50000000  1
  Sn  Sn12  1  0.74930662  0.50000000  0.24930662  1
  Sn  Sn13  1  0.25069338  0.50000000  0.75069338  1
  Sn  Sn14  1  0.50000000  0.24930662  0.74930662  1
  Sn  Sn15  1  0.50000000  0.75069338  0.25069338  1
