# generated using pymatgen
data_3088_Rh4As12
_symmetry_space_group_name_H-M   'Im -3'
_cell_length_a   7.42408480
_cell_length_b   7.42408480
_cell_length_c   7.42408480
_cell_angle_alpha   109.47122063
_cell_angle_beta   109.47122063
_cell_angle_gamma   109.47122063
_chemical_formula_structural   Rh4As12
_chemical_formula_sum   'As12 Rh4'
_cell_volume   314.99733648
loop_
 _symmetry_equiv_pos_site_id
 _symmetry_equiv_pos_as_xyz
  1  'x, y, z'
loop_
 _atom_type_symbol
  As
  Rh
loop_
 _atom_site_type_symbol
 _atom_site_label
 _atom_site_symmetry_multiplicity
 _atom_site_fract_x
 _atom_site_fract_y
 _atom_site_fract_z
 _atom_site_occupancy
  As  As0  1  0.65164986  0.85378681  0.50543667  1
  As  As1  1  0.34835014  0.85378681  0.20213695  1
  As  As2  1  0.65164986  0.14621319  0.79786305  1
  As  As3  1  0.34835014  0.14621319  0.49456333  1
  As  As4  1  0.85378681  0.50543667  0.65164986  1
  As  As5  1  0.85378681  0.20213695  0.34835014  1
  As  As6  1  0.14621319  0.79786305  0.65164986  1
  As  As7  1  0.14621319  0.49456333  0.34835014  1
  As  As8  1  0.50543667  0.65164986  0.85378681  1
  As  As9  1  0.20213695  0.34835014  0.85378681  1
  As  As10  1  0.79786305  0.65164986  0.14621319  1
  As  As11  1  0.49456333  0.34835014  0.14621319  1
  Rh  Rh0  1  0.50000000  0.50000000  0.50000000  1
  Rh  Rh1  1  0.50000000  0.00000000  0.00000000  1
  Rh  Rh2  1  0.00000000  0.50000000  0.00000000  1
  Rh  Rh3  1  0.00000000  0.00000000  0.50000000  1
