# generated using pymatgen
data_3089_Sn2W2
_symmetry_space_group_name_H-M   'Imma'
_cell_length_a   5.40746780
_cell_length_b   5.40746780
_cell_length_c   5.40746780
_cell_angle_alpha   141.42682369
_cell_angle_beta   128.73986163
_cell_angle_gamma   65.94597063
_chemical_formula_structural   Sn2W2
_chemical_formula_sum   'Sn2 W2'
_cell_volume   75.80737018
loop_
 _symmetry_equiv_pos_site_id
 _symmetry_equiv_pos_as_xyz
  1  'x, y, z'
loop_
 _atom_type_symbol
  Sn
  W
loop_
 _atom_site_type_symbol
 _atom_site_label
 _atom_site_symmetry_multiplicity
 _atom_site_fract_x
 _atom_site_fract_y
 _atom_site_fract_z
 _atom_site_occupancy
  Sn  Sn0  1  0.36373135  0.61373135  0.25000000  1
  Sn  Sn1  1  0.63626865  0.38626865  0.75000000  1
  W  W0  1  0.88965527  0.13965527  0.25000000  1
  W  W1  1  0.11034473  0.86034473  0.75000000  1
