# generated using pymatgen
data_3094_In2Ni
_symmetry_space_group_name_H-M   'I4/mmm'
_cell_length_a   6.18017218
_cell_length_b   6.18017218
_cell_length_c   6.18017218
_cell_angle_alpha   150.22284962
_cell_angle_beta   150.22284962
_cell_angle_gamma   42.61438225
_chemical_formula_structural   In2Ni
_chemical_formula_sum   'In2 Ni1'
_cell_volume   58.07326154
loop_
 _symmetry_equiv_pos_site_id
 _symmetry_equiv_pos_as_xyz
  1  'x, y, z'
loop_
 _atom_type_symbol
  In
  Ni
loop_
 _atom_site_type_symbol
 _atom_site_label
 _atom_site_symmetry_multiplicity
 _atom_site_fract_x
 _atom_site_fract_y
 _atom_site_fract_z
 _atom_site_occupancy
  In  In0  1  0.63887244  0.63887244  0.00000000  1
  In  In1  1  0.36112756  0.36112756  0.00000000  1
  Ni  Ni0  1  0.00000000  0.00000000  0.00000000  1
