# generated using pymatgen
data_309_Fe16Pd8
_symmetry_space_group_name_H-M   'Fd -3 m'
_cell_length_a   7.87385208
_cell_length_b   7.87385208
_cell_length_c   7.87385208
_cell_angle_alpha   60.00000000
_cell_angle_beta   60.00000000
_cell_angle_gamma   60.00000000
_chemical_formula_structural   Fe16Pd8
_chemical_formula_sum   'Fe16 Pd8'
_cell_volume   345.18090061
loop_
 _symmetry_equiv_pos_site_id
 _symmetry_equiv_pos_as_xyz
  1  'x, y, z'
loop_
 _atom_type_symbol
  Fe
  Pd
loop_
 _atom_site_type_symbol
 _atom_site_label
 _atom_site_symmetry_multiplicity
 _atom_site_fract_x
 _atom_site_fract_y
 _atom_site_fract_z
 _atom_site_occupancy
  Fe  Fe0  1  0.50000000  0.00000000  0.50000000  1
  Fe  Fe1  1  0.50000000  0.00000000  0.00000000  1
  Fe  Fe2  1  0.00000000  0.00000000  0.50000000  1
  Fe  Fe3  1  0.50000000  0.50000000  0.50000000  1
  Fe  Fe4  1  0.31362445  0.81362445  0.93637555  1
  Fe  Fe5  1  0.93637555  0.81362445  0.31362445  1
  Fe  Fe6  1  0.93637555  0.81362445  0.93637555  1
  Fe  Fe7  1  0.31362445  0.43637555  0.31362445  1
  Fe  Fe8  1  0.31362445  0.43637555  0.93637555  1
  Fe  Fe9  1  0.93637555  0.43637555  0.31362445  1
  Fe  Fe10  1  0.68637555  0.18637555  0.06362445  1
  Fe  Fe11  1  0.06362445  0.18637555  0.68637555  1
  Fe  Fe12  1  0.06362445  0.18637555  0.06362445  1
  Fe  Fe13  1  0.68637555  0.56362445  0.68637555  1
  Fe  Fe14  1  0.68637555  0.56362445  0.06362445  1
  Fe  Fe15  1  0.06362445  0.56362445  0.68637555  1
  Pd  Pd0  1  0.71650396  0.85048812  0.71650396  1
  Pd  Pd1  1  0.35048812  0.21650396  0.71650396  1
  Pd  Pd2  1  0.71650396  0.21650396  0.35048812  1
  Pd  Pd3  1  0.71650396  0.21650396  0.71650396  1
  Pd  Pd4  1  0.28349604  0.14951188  0.28349604  1
  Pd  Pd5  1  0.64951188  0.78349604  0.28349604  1
  Pd  Pd6  1  0.28349604  0.78349604  0.64951188  1
  Pd  Pd7  1  0.28349604  0.78349604  0.28349604  1
