# generated using pymatgen
data_3100_Na2Sb2
_symmetry_space_group_name_H-M   'P4/nmm'
_cell_length_a   4.24803972
_cell_length_b   4.24803972
_cell_length_c   6.48864834
_cell_angle_alpha   90.00000000
_cell_angle_beta   90.00000000
_cell_angle_gamma   90.00000000
_chemical_formula_structural   Na2Sb2
_chemical_formula_sum   'Na2 Sb2'
_cell_volume   117.09311925
loop_
 _symmetry_equiv_pos_site_id
 _symmetry_equiv_pos_as_xyz
  1  'x, y, z'
loop_
 _atom_type_symbol
  Na
  Sb
loop_
 _atom_site_type_symbol
 _atom_site_label
 _atom_site_symmetry_multiplicity
 _atom_site_fract_x
 _atom_site_fract_y
 _atom_site_fract_z
 _atom_site_occupancy
  Na  Na0  1  0.00000000  0.00000000  0.99799736  1
  Na  Na1  1  0.50000000  0.50000000  0.25200264  1
  Sb  Sb0  1  0.00000000  0.00000000  0.53395141  1
  Sb  Sb1  1  0.50000000  0.50000000  0.71604859  1
