# generated using pymatgen
data_3101_Al3Ba
_symmetry_space_group_name_H-M   'P4/mmm'
_cell_length_a   3.61643586
_cell_length_b   3.61643586
_cell_length_c   7.62344654
_cell_angle_alpha   90.00000000
_cell_angle_beta   90.00000000
_cell_angle_gamma   89.48621378
_chemical_formula_structural   Al3Ba
_chemical_formula_sum   'Al3 Ba1'
_cell_volume   99.70006301
loop_
 _symmetry_equiv_pos_site_id
 _symmetry_equiv_pos_as_xyz
  1  'x, y, z'
loop_
 _atom_type_symbol
  Al
  Ba
loop_
 _atom_site_type_symbol
 _atom_site_label
 _atom_site_symmetry_multiplicity
 _atom_site_fract_x
 _atom_site_fract_y
 _atom_site_fract_z
 _atom_site_occupancy
  Al  Al0  1  0.00000000  0.00000000  0.92643049  1
  Al  Al1  1  0.50000000  0.50000000  0.75000000  1
  Al  Al2  1  0.00000000  0.00000000  0.57356951  1
  Ba  Ba0  1  0.50000000  0.50000000  0.25000000  1
