# generated using pymatgen
data_3108_In3Mo
_symmetry_space_group_name_H-M   'Pmm2'
_cell_length_a   3.06090426
_cell_length_b   5.14967619
_cell_length_c   5.33921691
_cell_angle_alpha   90.00000000
_cell_angle_beta   90.00000000
_cell_angle_gamma   90.00000000
_chemical_formula_structural   In3Mo
_chemical_formula_sum   'In3 Mo1'
_cell_volume   84.16029172
loop_
 _symmetry_equiv_pos_site_id
 _symmetry_equiv_pos_as_xyz
  1  'x, y, z'
loop_
 _atom_type_symbol
  In
  Mo
loop_
 _atom_site_type_symbol
 _atom_site_label
 _atom_site_symmetry_multiplicity
 _atom_site_fract_x
 _atom_site_fract_y
 _atom_site_fract_z
 _atom_site_occupancy
  In  In0  1  0.00000000  0.00000000  0.01827622  1
  In  In1  1  0.50000000  0.00000000  0.49944597  1
  In  In2  1  0.50000000  0.50000000  0.82890999  1
  Mo  Mo0  1  0.00000000  0.50000000  0.32003449  1
