# generated using pymatgen
data_3110_Ba4Cu
_symmetry_space_group_name_H-M   'Im -3 m'
_cell_length_a   6.87483738
_cell_length_b   6.87483738
_cell_length_c   6.87483738
_cell_angle_alpha   109.47122063
_cell_angle_beta   109.47122063
_cell_angle_gamma   109.47122063
_chemical_formula_structural   Ba4Cu
_chemical_formula_sum   'Ba4 Cu1'
_cell_volume   250.12977795
loop_
 _symmetry_equiv_pos_site_id
 _symmetry_equiv_pos_as_xyz
  1  'x, y, z'
loop_
 _atom_type_symbol
  Ba
  Cu
loop_
 _atom_site_type_symbol
 _atom_site_label
 _atom_site_symmetry_multiplicity
 _atom_site_fract_x
 _atom_site_fract_y
 _atom_site_fract_z
 _atom_site_occupancy
  Ba  Ba0  1  0.00000000  0.50000000  0.00000000  1
  Ba  Ba1  1  0.50000000  0.50000000  0.50000000  1
  Ba  Ba2  1  0.00000000  0.00000000  0.50000000  1
  Ba  Ba3  1  0.50000000  0.00000000  0.00000000  1
  Cu  Cu0  1  0.00000000  0.00000000  0.00000000  1
