# generated using pymatgen
data_3111_Al4Ir2
_symmetry_space_group_name_H-M   'Cmcm'
_cell_length_a   6.90863570
_cell_length_b   6.90863570
_cell_length_c   4.59613852
_cell_angle_alpha   90.00000000
_cell_angle_beta   90.00000000
_cell_angle_gamma   155.41105850
_chemical_formula_structural   Al4Ir2
_chemical_formula_sum   'Al4 Ir2'
_cell_volume   91.28111499
loop_
 _symmetry_equiv_pos_site_id
 _symmetry_equiv_pos_as_xyz
  1  'x, y, z'
loop_
 _atom_type_symbol
  Al
  Ir
loop_
 _atom_site_type_symbol
 _atom_site_label
 _atom_site_symmetry_multiplicity
 _atom_site_fract_x
 _atom_site_fract_y
 _atom_site_fract_z
 _atom_site_occupancy
  Al  Al0  1  0.01662200  0.98337800  0.00000000  1
  Al  Al1  1  0.33223967  0.66776033  0.00000000  1
  Al  Al2  1  0.44553811  0.55446189  0.50000000  1
  Al  Al3  1  0.76115578  0.23884422  0.50000000  1
  Ir  Ir0  1  0.67973363  0.32026637  0.00000000  1
  Ir  Ir1  1  0.09804414  0.90195586  0.50000000  1
