# generated using pymatgen
data_3120_Au3Pb
_symmetry_space_group_name_H-M   'Imm2'
_cell_length_a   5.52843360
_cell_length_b   5.52843360
_cell_length_c   5.52843360
_cell_angle_alpha   139.28141273
_cell_angle_beta   128.99132885
_cell_angle_gamma   67.22424130
_chemical_formula_structural   Au3Pb
_chemical_formula_sum   'Au3 Pb1'
_cell_volume   84.31879686
loop_
 _symmetry_equiv_pos_site_id
 _symmetry_equiv_pos_as_xyz
  1  'x, y, z'
loop_
 _atom_type_symbol
  Au
  Pb
loop_
 _atom_site_type_symbol
 _atom_site_label
 _atom_site_symmetry_multiplicity
 _atom_site_fract_x
 _atom_site_fract_y
 _atom_site_fract_z
 _atom_site_occupancy
  Au  Au0  1  0.05608596  0.98501491  0.07107105  1
  Au  Au1  1  0.58605614  0.51498509  0.07107105  1
  Au  Au2  1  0.85010691  0.25000000  0.60010691  1
  Pb  Pb0  1  0.34108431  0.75000000  0.59108431  1
