# generated using pymatgen
data_3122_MnPt3
_symmetry_space_group_name_H-M   'P4/mmm'
_cell_length_a   2.72152555
_cell_length_b   2.72152555
_cell_length_c   7.79780320
_cell_angle_alpha   90.00000000
_cell_angle_beta   90.00000000
_cell_angle_gamma   90.00000000
_chemical_formula_structural   MnPt3
_chemical_formula_sum   'Mn1 Pt3'
_cell_volume   57.75599915
loop_
 _symmetry_equiv_pos_site_id
 _symmetry_equiv_pos_as_xyz
  1  'x, y, z'
loop_
 _atom_type_symbol
  Mn
  Pt
loop_
 _atom_site_type_symbol
 _atom_site_label
 _atom_site_symmetry_multiplicity
 _atom_site_fract_x
 _atom_site_fract_y
 _atom_site_fract_z
 _atom_site_occupancy
  Mn  Mn0  1  0.00000000  0.00000000  0.00000000  1
  Pt  Pt0  1  0.00000000  0.00000000  0.50000000  1
  Pt  Pt1  1  0.50000000  0.50000000  0.22682450  1
  Pt  Pt2  1  0.50000000  0.50000000  0.77317550  1
