# generated using pymatgen
data_3124_Pd3Ta
_symmetry_space_group_name_H-M   'I4/mmm'
_cell_length_a   3.94166815
_cell_length_b   4.90363058
_cell_length_c   3.91566209
_cell_angle_alpha   66.46797882
_cell_angle_beta   90.00000000
_cell_angle_gamma   113.69783917
_chemical_formula_structural   Pd3Ta
_chemical_formula_sum   'Pd3 Ta1'
_cell_volume   62.36713544
loop_
 _symmetry_equiv_pos_site_id
 _symmetry_equiv_pos_as_xyz
  1  'x, y, z'
loop_
 _atom_type_symbol
  Pd
  Ta
loop_
 _atom_site_type_symbol
 _atom_site_label
 _atom_site_symmetry_multiplicity
 _atom_site_fract_x
 _atom_site_fract_y
 _atom_site_fract_z
 _atom_site_occupancy
  Pd  Pd0  1  0.91550935  0.99744032  0.00127984  1
  Pd  Pd1  1  0.16661733  0.50000000  0.25000000  1
  Pd  Pd2  1  0.41806903  0.00255968  0.49872016  1
  Ta  Ta0  1  0.66647096  0.50000000  0.75000000  1
