# generated using pymatgen
data_3126_InPd
_symmetry_space_group_name_H-M   'Pm -3 m'
_cell_length_a   3.29827970
_cell_length_b   3.29827970
_cell_length_c   3.29827970
_cell_angle_alpha   90.00000000
_cell_angle_beta   90.00000000
_cell_angle_gamma   90.00000000
_chemical_formula_structural   InPd
_chemical_formula_sum   'In1 Pd1'
_cell_volume   35.88082709
loop_
 _symmetry_equiv_pos_site_id
 _symmetry_equiv_pos_as_xyz
  1  'x, y, z'
loop_
 _atom_type_symbol
  In
  Pd
loop_
 _atom_site_type_symbol
 _atom_site_label
 _atom_site_symmetry_multiplicity
 _atom_site_fract_x
 _atom_site_fract_y
 _atom_site_fract_z
 _atom_site_occupancy
  In  In0  1  0.00000000  0.00000000  0.00000000  1
  Pd  Pd0  1  0.49999858  0.49999858  0.49999858  1
