# generated using pymatgen
data_312_Nb2W4
_symmetry_space_group_name_H-M   'Pnnm'
_cell_length_a   2.74234300
_cell_length_b   7.87442761
_cell_length_c   4.61317228
_cell_angle_alpha   90.00000000
_cell_angle_beta   90.00000000
_cell_angle_gamma   90.00000000
_chemical_formula_structural   Nb2W4
_chemical_formula_sum   'Nb2 W4'
_cell_volume   99.61860184
loop_
 _symmetry_equiv_pos_site_id
 _symmetry_equiv_pos_as_xyz
  1  'x, y, z'
loop_
 _atom_type_symbol
  Nb
  W
loop_
 _atom_site_type_symbol
 _atom_site_label
 _atom_site_symmetry_multiplicity
 _atom_site_fract_x
 _atom_site_fract_y
 _atom_site_fract_z
 _atom_site_occupancy
  Nb  Nb0  1  0.00000000  0.00000000  0.00000000  1
  Nb  Nb1  1  0.50000000  0.50000000  0.50000000  1
  W  W0  1  0.20660520  0.33433308  0.00000000  1
  W  W1  1  0.29339480  0.83433308  0.50000000  1
  W  W2  1  0.70660520  0.16566692  0.50000000  1
  W  W3  1  0.79339480  0.66566692  0.00000000  1
