# generated using pymatgen
data_3132_Ca3Ga
_symmetry_space_group_name_H-M   'P4/mmm'
_cell_length_a   4.14475709
_cell_length_b   4.14475709
_cell_length_c   8.19968983
_cell_angle_alpha   90.00000000
_cell_angle_beta   90.00000000
_cell_angle_gamma   90.00000000
_chemical_formula_structural   Ca3Ga
_chemical_formula_sum   'Ca3 Ga1'
_cell_volume   140.86256453
loop_
 _symmetry_equiv_pos_site_id
 _symmetry_equiv_pos_as_xyz
  1  'x, y, z'
loop_
 _atom_type_symbol
  Ca
  Ga
loop_
 _atom_site_type_symbol
 _atom_site_label
 _atom_site_symmetry_multiplicity
 _atom_site_fract_x
 _atom_site_fract_y
 _atom_site_fract_z
 _atom_site_occupancy
  Ca  Ca0  1  0.00000000  0.00000000  0.99486360  1
  Ca  Ca1  1  0.50000000  0.50000000  0.25000000  1
  Ca  Ca2  1  0.00000000  0.00000000  0.50513640  1
  Ga  Ga0  1  0.50000000  0.50000000  0.75000000  1
