# generated using pymatgen
data_3136_Ca2Cu6
_symmetry_space_group_name_H-M   'Pm -3 n'
_cell_length_a   5.08058372
_cell_length_b   5.08058372
_cell_length_c   5.08058372
_cell_angle_alpha   90.00000000
_cell_angle_beta   90.00000000
_cell_angle_gamma   90.00000000
_chemical_formula_structural   Ca2Cu6
_chemical_formula_sum   'Ca2 Cu6'
_cell_volume   131.14170833
loop_
 _symmetry_equiv_pos_site_id
 _symmetry_equiv_pos_as_xyz
  1  'x, y, z'
loop_
 _atom_type_symbol
  Ca
  Cu
loop_
 _atom_site_type_symbol
 _atom_site_label
 _atom_site_symmetry_multiplicity
 _atom_site_fract_x
 _atom_site_fract_y
 _atom_site_fract_z
 _atom_site_occupancy
  Ca  Ca0  1  0.00000000  0.00000000  0.00000000  1
  Ca  Ca1  1  0.50000000  0.50000000  0.50000000  1
  Cu  Cu0  1  0.75000000  0.50000000  0.00000000  1
  Cu  Cu1  1  0.25000000  0.50000000  0.00000000  1
  Cu  Cu2  1  0.00000000  0.75000000  0.50000000  1
  Cu  Cu3  1  0.00000000  0.25000000  0.50000000  1
  Cu  Cu4  1  0.50000000  0.00000000  0.25000000  1
  Cu  Cu5  1  0.50000000  0.00000000  0.75000000  1
