# generated using pymatgen
data_3139_Al2Ni
_symmetry_space_group_name_H-M   'I4/mmm'
_cell_length_a   2.83960783
_cell_length_b   2.83960783
_cell_length_c   5.44148390
_cell_angle_alpha   105.11497663
_cell_angle_beta   105.11497663
_cell_angle_gamma   90.03630406
_chemical_formula_structural   Al2Ni
_chemical_formula_sum   'Al2 Ni1'
_cell_volume   40.78233952
loop_
 _symmetry_equiv_pos_site_id
 _symmetry_equiv_pos_as_xyz
  1  'x, y, z'
loop_
 _atom_type_symbol
  Al
  Ni
loop_
 _atom_site_type_symbol
 _atom_site_label
 _atom_site_symmetry_multiplicity
 _atom_site_fract_x
 _atom_site_fract_y
 _atom_site_fract_z
 _atom_site_occupancy
  Al  Al0  1  0.85200333  0.85200333  0.70400667  1
  Al  Al1  1  0.14799667  0.14799667  0.29599333  1
  Ni  Ni0  1  0.50000000  0.50000000  0.00000000  1
