# generated using pymatgen
data_3141_Cu2K4
_symmetry_space_group_name_H-M   'Fd -3 m'
_cell_length_a   7.21727902
_cell_length_b   7.21727902
_cell_length_c   7.21727902
_cell_angle_alpha   60.00000000
_cell_angle_beta   60.00000000
_cell_angle_gamma   60.00000000
_chemical_formula_structural   Cu2K4
_chemical_formula_sum   'Cu2 K4'
_cell_volume   265.83091696
loop_
 _symmetry_equiv_pos_site_id
 _symmetry_equiv_pos_as_xyz
  1  'x, y, z'
loop_
 _atom_type_symbol
  Cu
  K
loop_
 _atom_site_type_symbol
 _atom_site_label
 _atom_site_symmetry_multiplicity
 _atom_site_fract_x
 _atom_site_fract_y
 _atom_site_fract_z
 _atom_site_occupancy
  Cu  Cu0  1  0.87500000  0.87500000  0.37500000  1
  Cu  Cu1  1  0.12500000  0.12500000  0.62500000  1
  K  K0  1  0.50000000  0.50000000  0.50000000  1
  K  K1  1  0.00000000  0.50000000  0.00000000  1
  K  K2  1  0.50000000  0.00000000  1.00000000  1
  K  K3  1  0.50000000  0.50000000  1.00000000  1
