# generated using pymatgen
data_3149_CsSr
_symmetry_space_group_name_H-M   'P4/mmm'
_cell_length_a   4.49002058
_cell_length_b   6.34984900
_cell_length_c   7.31834800
_cell_angle_alpha   90.00000000
_cell_angle_beta   90.00000000
_cell_angle_gamma   45.00000000
_chemical_formula_structural   CsSr
_chemical_formula_sum   'Cs1 Sr1'
_cell_volume   147.54000327
loop_
 _symmetry_equiv_pos_site_id
 _symmetry_equiv_pos_as_xyz
  1  'x, y, z'
loop_
 _atom_type_symbol
  Cs
  Sr
loop_
 _atom_site_type_symbol
 _atom_site_label
 _atom_site_symmetry_multiplicity
 _atom_site_fract_x
 _atom_site_fract_y
 _atom_site_fract_z
 _atom_site_occupancy
  Cs  Cs0  1  0.00000000  0.00000000  0.00000000  1
  Sr  Sr0  1  0.00000000  0.49999932  0.49999942  1
