# generated using pymatgen
data_3152_Ca8In4
_symmetry_space_group_name_H-M   'Pnma'
_cell_length_a   7.23949000
_cell_length_b   5.35257000
_cell_length_c   9.95980600
_cell_angle_alpha   90.00000000
_cell_angle_beta   90.00000000
_cell_angle_gamma   90.00000000
_chemical_formula_structural   Ca8In4
_chemical_formula_sum   'Ca8 In4'
_cell_volume   385.94125734
loop_
 _symmetry_equiv_pos_site_id
 _symmetry_equiv_pos_as_xyz
  1  'x, y, z'
loop_
 _atom_type_symbol
  Ca
  In
loop_
 _atom_site_type_symbol
 _atom_site_label
 _atom_site_symmetry_multiplicity
 _atom_site_fract_x
 _atom_site_fract_y
 _atom_site_fract_z
 _atom_site_occupancy
  Ca  Ca0  1  0.17378572  0.24999952  0.06483058  1
  Ca  Ca1  1  0.46562673  0.75000044  0.20172582  1
  Ca  Ca2  1  0.96562742  0.75000044  0.29827488  1
  Ca  Ca3  1  0.67378642  0.24999952  0.43516912  1
  Ca  Ca4  1  0.32621359  0.75000044  0.56483027  1
  Ca  Ca5  1  0.03437259  0.24999952  0.70172551  1
  Ca  Ca6  1  0.53437328  0.24999952  0.79827458  1
  Ca  Ca7  1  0.82621428  0.75000044  0.93516881  1
  In  In0  1  0.72436733  0.24999952  0.11334658  1
  In  In1  1  0.22436802  0.24999952  0.38665411  1
  In  In2  1  0.77563199  0.75000044  0.61334628  1
  In  In3  1  0.27563268  0.75000044  0.88665381  1
