# generated using pymatgen
data_3154_Na4Pt8
_symmetry_space_group_name_H-M   'I4_1/amd'
_cell_length_a   12.15429835
_cell_length_b   12.15429835
_cell_length_c   12.15429835
_cell_angle_alpha   160.66540719
_cell_angle_beta   160.66540719
_cell_angle_gamma   27.47621294
_chemical_formula_structural   Na4Pt8
_chemical_formula_sum   'Na4 Pt8'
_cell_volume   196.73587651
loop_
 _symmetry_equiv_pos_site_id
 _symmetry_equiv_pos_as_xyz
  1  'x, y, z'
loop_
 _atom_type_symbol
  Na
  Pt
loop_
 _atom_site_type_symbol
 _atom_site_label
 _atom_site_symmetry_multiplicity
 _atom_site_fract_x
 _atom_site_fract_y
 _atom_site_fract_z
 _atom_site_occupancy
  Na  Na0  1  0.91631611  0.91631612  0.00000000  1
  Na  Na1  1  0.08368389  0.08368388  0.00000000  1
  Na  Na2  1  0.16631611  0.66631612  0.50000000  1
  Na  Na3  1  0.33368389  0.83368388  0.50000000  1
  Pt  Pt0  1  0.74950728  0.74950728  0.00000000  1
  Pt  Pt1  1  0.25049272  0.25049272  0.00000000  1
  Pt  Pt2  1  0.99950728  0.49950728  0.50000000  1
  Pt  Pt3  1  0.50049272  0.00049272  0.50000000  1
  Pt  Pt4  1  0.58126937  0.58126938  0.00000000  1
  Pt  Pt5  1  0.41873063  0.41873062  0.00000000  1
  Pt  Pt6  1  0.83126937  0.33126938  0.50000000  1
  Pt  Pt7  1  0.66873063  0.16873062  0.50000000  1
