# generated using pymatgen
data_3162_PBr
_symmetry_space_group_name_H-M   'P-6m2'
_cell_length_a   3.33714300
_cell_length_b   3.33713789
_cell_length_c   4.26921100
_cell_angle_alpha   90.00000000
_cell_angle_beta   90.00000000
_cell_angle_gamma   120.00004076
_chemical_formula_structural   PBr
_chemical_formula_sum   'Br1 P1'
_cell_volume   41.17437749
loop_
 _symmetry_equiv_pos_site_id
 _symmetry_equiv_pos_as_xyz
  1  'x, y, z'
loop_
 _atom_type_symbol
  Br
  P
loop_
 _atom_site_type_symbol
 _atom_site_label
 _atom_site_symmetry_multiplicity
 _atom_site_fract_x
 _atom_site_fract_y
 _atom_site_fract_z
 _atom_site_occupancy
  Br  Br0  1  0.66666603  0.33332696  0.75000048  1
  P  P0  1  0.33333724  0.66667469  0.24999938  1
