# generated using pymatgen
data_3163_Mn2W4
_symmetry_space_group_name_H-M   'Cmcm'
_cell_length_a   3.14423489
_cell_length_b   6.58424963
_cell_length_c   4.36823176
_cell_angle_alpha   90.00000000
_cell_angle_beta   90.00000000
_cell_angle_gamma   76.18607831
_chemical_formula_structural   Mn2W4
_chemical_formula_sum   'Mn2 W4'
_cell_volume   87.81734326
loop_
 _symmetry_equiv_pos_site_id
 _symmetry_equiv_pos_as_xyz
  1  'x, y, z'
loop_
 _atom_type_symbol
  Mn
  W
loop_
 _atom_site_type_symbol
 _atom_site_label
 _atom_site_symmetry_multiplicity
 _atom_site_fract_x
 _atom_site_fract_y
 _atom_site_fract_z
 _atom_site_occupancy
  Mn  Mn0  1  0.91956194  0.16087611  0.25000000  1
  Mn  Mn1  1  0.08043806  0.83912389  0.75000000  1
  W  W0  1  0.57793747  0.84412506  0.25000000  1
  W  W1  1  0.42206253  0.15587494  0.75000000  1
  W  W2  1  0.24953973  0.50092054  0.25000000  1
  W  W3  1  0.75046027  0.49907946  0.75000000  1
