# generated using pymatgen
data_3167_AlBa8
_symmetry_space_group_name_H-M   'I4/mmm'
_cell_length_a   10.64633430
_cell_length_b   10.64633430
_cell_length_c   10.64633430
_cell_angle_alpha   92.74459635
_cell_angle_beta   92.74459635
_cell_angle_gamma   154.72006421
_chemical_formula_structural   AlBa8
_chemical_formula_sum   'Al1 Ba8'
_cell_volume   502.82291732
loop_
 _symmetry_equiv_pos_site_id
 _symmetry_equiv_pos_as_xyz
  1  'x, y, z'
loop_
 _atom_type_symbol
  Al
  Ba
loop_
 _atom_site_type_symbol
 _atom_site_label
 _atom_site_symmetry_multiplicity
 _atom_site_fract_x
 _atom_site_fract_y
 _atom_site_fract_z
 _atom_site_occupancy
  Al  Al0  1  0.00000000  0.00000000  0.00000000  1
  Ba  Ba0  1  0.36004046  0.63995954  0.00000000  1
  Ba  Ba1  1  0.63995954  0.36004046  0.00000000  1
  Ba  Ba2  1  1.00000000  0.33429045  0.33429045  1
  Ba  Ba3  1  0.63995954  0.63995954  0.27991908  1
  Ba  Ba4  1  0.33429045  0.00000000  0.33429045  1
  Ba  Ba5  1  0.36004046  0.36004046  0.72008092  1
  Ba  Ba6  1  1.00000000  0.66570955  0.66570955  1
  Ba  Ba7  1  0.66570955  0.00000000  0.66570955  1
