# generated using pymatgen
data_3170_Pd5Rb
_symmetry_space_group_name_H-M   'P4/mmm'
_cell_length_a   11.93994000
_cell_length_b   3.09143459
_cell_length_c   3.09143459
_cell_angle_alpha   90.00000000
_cell_angle_beta   90.00000000
_cell_angle_gamma   90.00000000
_chemical_formula_structural   Pd5Rb
_chemical_formula_sum   'Pd5 Rb1'
_cell_volume   114.10962218
loop_
 _symmetry_equiv_pos_site_id
 _symmetry_equiv_pos_as_xyz
  1  'x, y, z'
loop_
 _atom_type_symbol
  Pd
  Rb
loop_
 _atom_site_type_symbol
 _atom_site_label
 _atom_site_symmetry_multiplicity
 _atom_site_fract_x
 _atom_site_fract_y
 _atom_site_fract_z
 _atom_site_occupancy
  Pd  Pd0  1  0.05325563  0.00000000  0.00000000  1
  Pd  Pd1  1  0.19316022  0.50000000  0.50000000  1
  Pd  Pd2  1  0.33333333  0.00000000  0.00000000  1
  Pd  Pd3  1  0.47350645  0.50000000  0.50000000  1
  Pd  Pd4  1  0.61341104  0.00000000  0.00000000  1
  Rb  Rb0  1  0.83333333  0.50000000  0.50000000  1
