# generated using pymatgen
data_3171_Sn6W2
_symmetry_space_group_name_H-M   'Pmmn'
_cell_length_a   4.33114276
_cell_length_b   7.26748040
_cell_length_c   5.90155016
_cell_angle_alpha   90.00000000
_cell_angle_beta   90.00000000
_cell_angle_gamma   90.00000000
_chemical_formula_structural   Sn6W2
_chemical_formula_sum   'Sn6 W2'
_cell_volume   185.76011480
loop_
 _symmetry_equiv_pos_site_id
 _symmetry_equiv_pos_as_xyz
  1  'x, y, z'
loop_
 _atom_type_symbol
  Sn
  W
loop_
 _atom_site_type_symbol
 _atom_site_label
 _atom_site_symmetry_multiplicity
 _atom_site_fract_x
 _atom_site_fract_y
 _atom_site_fract_z
 _atom_site_occupancy
  Sn  Sn0  1  0.50000000  0.55224289  0.00000000  1
  Sn  Sn1  1  0.00000000  0.44775711  0.50000000  1
  Sn  Sn2  1  0.00000000  0.85660416  0.23573848  1
  Sn  Sn3  1  0.00000000  0.85660416  0.76426152  1
  Sn  Sn4  1  0.50000000  0.14339584  0.73573848  1
  Sn  Sn5  1  0.50000000  0.14339584  0.26426152  1
  W  W0  1  0.00000000  0.25830231  0.00000000  1
  W  W1  1  0.50000000  0.74169769  0.50000000  1
