# generated using pymatgen
data_3172_PtRb5
_symmetry_space_group_name_H-M   'F-43m'
_cell_length_a   7.97398874
_cell_length_b   7.97398874
_cell_length_c   7.97398874
_cell_angle_alpha   60.00000000
_cell_angle_beta   60.00000000
_cell_angle_gamma   60.00000000
_chemical_formula_structural   PtRb5
_chemical_formula_sum   'Pt1 Rb5'
_cell_volume   358.51873558
loop_
 _symmetry_equiv_pos_site_id
 _symmetry_equiv_pos_as_xyz
  1  'x, y, z'
loop_
 _atom_type_symbol
  Pt
  Rb
loop_
 _atom_site_type_symbol
 _atom_site_label
 _atom_site_symmetry_multiplicity
 _atom_site_fract_x
 _atom_site_fract_y
 _atom_site_fract_z
 _atom_site_occupancy
  Pt  Pt0  1  0.00000000  0.00000000  0.00000000  1
  Rb  Rb0  1  0.11723031  0.62758990  0.62758990  1
  Rb  Rb1  1  0.25000000  0.25000000  0.25000000  1
  Rb  Rb2  1  0.62758990  0.11723031  0.62758990  1
  Rb  Rb3  1  0.62758990  0.62758990  0.11723031  1
  Rb  Rb4  1  0.62758990  0.62758990  0.62758990  1
