# generated using pymatgen
data_3173_Al4Cu2
_symmetry_space_group_name_H-M   'Cmcm'
_cell_length_a   6.82319842
_cell_length_b   6.82319842
_cell_length_c   4.60849333
_cell_angle_alpha   90.00000000
_cell_angle_beta   90.00000000
_cell_angle_gamma   155.63198016
_chemical_formula_structural   Al4Cu2
_chemical_formula_sum   'Al4 Cu2'
_cell_volume   88.52379829
loop_
 _symmetry_equiv_pos_site_id
 _symmetry_equiv_pos_as_xyz
  1  'x, y, z'
loop_
 _atom_type_symbol
  Al
  Cu
loop_
 _atom_site_type_symbol
 _atom_site_label
 _atom_site_symmetry_multiplicity
 _atom_site_fract_x
 _atom_site_fract_y
 _atom_site_fract_z
 _atom_site_occupancy
  Al  Al0  1  0.99461249  0.00538751  0.00000000  1
  Al  Al1  1  0.66796208  0.33203792  0.00000000  1
  Al  Al2  1  0.44983195  0.55016805  0.50000000  1
  Al  Al3  1  0.77648237  0.22351763  0.50000000  1
  Cu  Cu0  1  0.33458126  0.66541874  0.00000000  1
  Cu  Cu1  1  0.10986319  0.89013681  0.50000000  1
