# generated using pymatgen
data_3175_Fe2Ir
_symmetry_space_group_name_H-M   'P4/mmm'
_cell_length_a   4.12844882
_cell_length_b   4.12844882
_cell_length_c   2.63491249
_cell_angle_alpha   90.00000000
_cell_angle_beta   90.00000000
_cell_angle_gamma   90.00000000
_chemical_formula_structural   Fe2Ir
_chemical_formula_sum   'Fe2 Ir1'
_cell_volume   44.90968472
loop_
 _symmetry_equiv_pos_site_id
 _symmetry_equiv_pos_as_xyz
  1  'x, y, z'
loop_
 _atom_type_symbol
  Fe
  Ir
loop_
 _atom_site_type_symbol
 _atom_site_label
 _atom_site_symmetry_multiplicity
 _atom_site_fract_x
 _atom_site_fract_y
 _atom_site_fract_z
 _atom_site_occupancy
  Fe  Fe0  1  0.00000000  0.50000000  0.50000000  1
  Fe  Fe1  1  0.50000000  0.00000000  0.50000000  1
  Ir  Ir0  1  0.00000000  0.00000000  0.00000000  1
