# generated using pymatgen
data_317_Fe4W2
_symmetry_space_group_name_H-M   'I4/mcm'
_cell_length_a   5.21593042
_cell_length_b   4.78369746
_cell_length_c   4.78369746
_cell_angle_alpha   107.29063005
_cell_angle_beta   123.03680832
_cell_angle_gamma   56.96319168
_chemical_formula_structural   Fe4W2
_chemical_formula_sum   'Fe4 W2'
_cell_volume   83.88404743
loop_
 _symmetry_equiv_pos_site_id
 _symmetry_equiv_pos_as_xyz
  1  'x, y, z'
loop_
 _atom_type_symbol
  Fe
  W
loop_
 _atom_site_type_symbol
 _atom_site_label
 _atom_site_symmetry_multiplicity
 _atom_site_fract_x
 _atom_site_fract_y
 _atom_site_fract_z
 _atom_site_occupancy
  Fe  Fe0  1  0.14178714  0.21642572  0.50000000  1
  Fe  Fe1  1  0.35821286  0.50000000  0.21642572  1
  Fe  Fe2  1  0.64178714  0.50000000  0.78357428  1
  Fe  Fe3  1  0.85821286  0.78357428  0.50000000  1
  W  W0  1  0.25000000  0.00000000  0.00000000  1
  W  W1  1  0.75000000  0.00000000  0.00000000  1
