# generated using pymatgen
data_3181_Mn3Rh
_symmetry_space_group_name_H-M   'Pmmm'
_cell_length_a   2.58291845
_cell_length_b   3.50431602
_cell_length_c   5.17060858
_cell_angle_alpha   90.00000000
_cell_angle_beta   90.00000000
_cell_angle_gamma   90.00000000
_chemical_formula_structural   Mn3Rh
_chemical_formula_sum   'Mn3 Rh1'
_cell_volume   46.80105259
loop_
 _symmetry_equiv_pos_site_id
 _symmetry_equiv_pos_as_xyz
  1  'x, y, z'
loop_
 _atom_type_symbol
  Mn
  Rh
loop_
 _atom_site_type_symbol
 _atom_site_label
 _atom_site_symmetry_multiplicity
 _atom_site_fract_x
 _atom_site_fract_y
 _atom_site_fract_z
 _atom_site_occupancy
  Mn  Mn0  1  0.00000000  0.00000000  0.96847059  1
  Mn  Mn1  1  1.00000000  0.00000000  0.53152941  1
  Mn  Mn2  1  0.50000000  0.50000000  0.75000000  1
  Rh  Rh0  1  0.50000000  0.50000000  0.25000000  1
