# generated using pymatgen
data_3182_SnW3
_symmetry_space_group_name_H-M   'Immm'
_cell_length_a   5.36645750
_cell_length_b   5.36645750
_cell_length_c   5.36645750
_cell_angle_alpha   144.11171645
_cell_angle_beta   130.16304083
_cell_angle_gamma   62.92693326
_chemical_formula_structural   SnW3
_chemical_formula_sum   'Sn1 W3'
_cell_volume   68.44728409
loop_
 _symmetry_equiv_pos_site_id
 _symmetry_equiv_pos_as_xyz
  1  'x, y, z'
loop_
 _atom_type_symbol
  Sn
  W
loop_
 _atom_site_type_symbol
 _atom_site_label
 _atom_site_symmetry_multiplicity
 _atom_site_fract_x
 _atom_site_fract_y
 _atom_site_fract_z
 _atom_site_occupancy
  Sn  Sn0  1  0.00000000  0.00000000  0.00000000  1
  W  W0  1  0.74014198  0.24014198  0.50000000  1
  W  W1  1  0.50000000  0.50000000  0.00000000  1
  W  W2  1  0.25985802  0.75985802  0.50000000  1
