# generated using pymatgen
data_3186_UGe
_symmetry_space_group_name_H-M   'R -3 m'
_cell_length_a   5.44473975
_cell_length_b   5.44473975
_cell_length_c   5.44473974
_cell_angle_alpha   32.02535023
_cell_angle_beta   32.02535023
_cell_angle_gamma   32.02535109
_chemical_formula_structural   UGe
_chemical_formula_sum   'Ge1 U1'
_cell_volume   40.33084025
loop_
 _symmetry_equiv_pos_site_id
 _symmetry_equiv_pos_as_xyz
  1  'x, y, z'
loop_
 _atom_type_symbol
  Ge
  U
loop_
 _atom_site_type_symbol
 _atom_site_label
 _atom_site_symmetry_multiplicity
 _atom_site_fract_x
 _atom_site_fract_y
 _atom_site_fract_z
 _atom_site_occupancy
  Ge  Ge0  1  0.00000000  0.00000000  0.00000000  1
  U  U0  1  0.49999972  0.49999972  0.50000000  1
