# generated using pymatgen
data_3190_Sn2W2
_symmetry_space_group_name_H-M   'Cmcm'
_cell_length_a   5.49803832
_cell_length_b   5.49803832
_cell_length_c   4.44581083
_cell_angle_alpha   90.00000000
_cell_angle_beta   90.00000000
_cell_angle_gamma   143.50293677
_chemical_formula_structural   Sn2W2
_chemical_formula_sum   'Sn2 W2'
_cell_volume   79.93261413
loop_
 _symmetry_equiv_pos_site_id
 _symmetry_equiv_pos_as_xyz
  1  'x, y, z'
loop_
 _atom_type_symbol
  Sn
  W
loop_
 _atom_site_type_symbol
 _atom_site_label
 _atom_site_symmetry_multiplicity
 _atom_site_fract_x
 _atom_site_fract_y
 _atom_site_fract_z
 _atom_site_occupancy
  Sn  Sn0  1  0.65568622  0.34431378  0.75000000  1
  Sn  Sn1  1  0.34431378  0.65568622  0.25000000  1
  W  W0  1  0.93294052  0.06705948  0.75000000  1
  W  W1  1  0.06705948  0.93294052  0.25000000  1
