# generated using pymatgen
data_3191_Au24Br5
_symmetry_space_group_name_H-M   'I-43m'
_cell_length_a   9.08138941
_cell_length_b   9.08138941
_cell_length_c   9.08138941
_cell_angle_alpha   109.47122063
_cell_angle_beta   109.47122063
_cell_angle_gamma   109.47122063
_chemical_formula_structural   Au24Br5
_chemical_formula_sum   'Au24 Br5'
_cell_volume   576.54738277
loop_
 _symmetry_equiv_pos_site_id
 _symmetry_equiv_pos_as_xyz
  1  'x, y, z'
loop_
 _atom_type_symbol
  Au
  Br
loop_
 _atom_site_type_symbol
 _atom_site_label
 _atom_site_symmetry_multiplicity
 _atom_site_fract_x
 _atom_site_fract_y
 _atom_site_fract_z
 _atom_site_occupancy
  Au  Au0  1  0.19301171  0.39169554  0.00000000  1
  Au  Au1  1  0.39169554  0.19301171  0.00000000  1
  Au  Au2  1  0.80698829  0.80698829  0.19868383  1
  Au  Au3  1  0.60830446  0.60830446  0.80131617  1
  Au  Au4  1  0.80698829  0.19868383  0.80698829  1
  Au  Au5  1  0.60830446  0.80131617  0.60830446  1
  Au  Au6  1  0.39169554  0.00000000  0.19301171  1
  Au  Au7  1  0.19301171  0.00000000  0.39169554  1
  Au  Au8  1  0.00000000  0.39169554  0.19301171  1
  Au  Au9  1  1.00000000  0.19301171  0.39169554  1
  Au  Au10  1  0.80131617  0.60830446  0.60830446  1
  Au  Au11  1  0.19868383  0.80698829  0.80698829  1
  Au  Au12  1  0.68492148  0.42226275  0.00000000  1
  Au  Au13  1  0.42226275  0.68492148  0.00000000  1
  Au  Au14  1  0.31507852  0.31507852  0.73734127  1
  Au  Au15  1  0.57773725  0.57773725  0.26265873  1
  Au  Au16  1  0.31507852  0.73734127  0.31507852  1
  Au  Au17  1  0.57773725  0.26265873  0.57773725  1
  Au  Au18  1  0.42226275  0.00000000  0.68492148  1
  Au  Au19  1  0.68492148  0.00000000  0.42226275  1
  Au  Au20  1  0.00000000  0.42226275  0.68492148  1
  Au  Au21  1  0.00000000  0.68492148  0.42226275  1
  Au  Au22  1  0.26265873  0.57773725  0.57773725  1
  Au  Au23  1  0.73734127  0.31507852  0.31507852  1
  Br  Br0  1  0.00000000  0.63971032  0.00000000  1
  Br  Br1  1  0.63971032  0.00000000  0.00000000  1
  Br  Br2  1  0.00000000  0.00000000  0.63971032  1
  Br  Br3  1  0.36028968  0.36028968  0.36028968  1
  Br  Br4  1  0.00000000  0.00000000  0.00000000  1
