# generated using pymatgen
data_3204_Al2Cu
_symmetry_space_group_name_H-M   'Fmmm'
_cell_length_a   6.77113503
_cell_length_b   6.48818340
_cell_length_c   2.53434944
_cell_angle_alpha   85.34108189
_cell_angle_beta   72.75504198
_cell_angle_gamma   21.90387612
_chemical_formula_structural   Al2Cu
_chemical_formula_sum   'Al2 Cu1'
_cell_volume   33.28388168
loop_
 _symmetry_equiv_pos_site_id
 _symmetry_equiv_pos_as_xyz
  1  'x, y, z'
loop_
 _atom_type_symbol
  Al
  Cu
loop_
 _atom_site_type_symbol
 _atom_site_label
 _atom_site_symmetry_multiplicity
 _atom_site_fract_x
 _atom_site_fract_y
 _atom_site_fract_z
 _atom_site_occupancy
  Al  Al0  1  0.99462187  0.99462187  0.00537813  1
  Al  Al1  1  0.67204480  0.67204480  0.32795520  1
  Cu  Cu0  1  0.33333333  0.33333333  0.66666667  1
