# generated using pymatgen
data_3210_Ba2W
_symmetry_space_group_name_H-M   'Immm'
_cell_length_a   8.51106196
_cell_length_b   8.51106196
_cell_length_c   8.51106196
_cell_angle_alpha   156.61174148
_cell_angle_beta   154.11401991
_cell_angle_gamma   35.16462602
_chemical_formula_structural   Ba2W
_chemical_formula_sum   'Ba2 W1'
_cell_volume   106.72627763
loop_
 _symmetry_equiv_pos_site_id
 _symmetry_equiv_pos_as_xyz
  1  'x, y, z'
loop_
 _atom_type_symbol
  Ba
  W
loop_
 _atom_site_type_symbol
 _atom_site_label
 _atom_site_symmetry_multiplicity
 _atom_site_fract_x
 _atom_site_fract_y
 _atom_site_fract_z
 _atom_site_occupancy
  Ba  Ba0  1  0.63265865  0.63265865  1.00000000  1
  Ba  Ba1  1  0.36734135  0.36734135  1.00000000  1
  W  W0  1  0.00000000  0.00000000  0.00000000  1
