# generated using pymatgen
data_3215_K8W4
_symmetry_space_group_name_H-M   'Pa -3'
_cell_length_a   8.78226710
_cell_length_b   8.78226710
_cell_length_c   8.78226710
_cell_angle_alpha   90.00000000
_cell_angle_beta   90.00000000
_cell_angle_gamma   90.00000000
_chemical_formula_structural   K8W4
_chemical_formula_sum   'K8 W4'
_cell_volume   677.36058873
loop_
 _symmetry_equiv_pos_site_id
 _symmetry_equiv_pos_as_xyz
  1  'x, y, z'
loop_
 _atom_type_symbol
  K
  W
loop_
 _atom_site_type_symbol
 _atom_site_label
 _atom_site_symmetry_multiplicity
 _atom_site_fract_x
 _atom_site_fract_y
 _atom_site_fract_z
 _atom_site_occupancy
  K  K0  1  0.65861203  0.65861203  0.34138797  1
  K  K1  1  0.34138797  0.34138797  0.65861203  1
  K  K2  1  0.15861203  0.84138797  0.65861203  1
  K  K3  1  0.84138797  0.15861203  0.34138797  1
  K  K4  1  0.34138797  0.15861203  0.15861203  1
  K  K5  1  0.65861203  0.84138797  0.84138797  1
  K  K6  1  0.84138797  0.34138797  0.84138797  1
  K  K7  1  0.15861203  0.65861203  0.15861203  1
  W  W0  1  0.00000000  0.00000000  0.00000000  1
  W  W1  1  0.50000000  0.50000000  0.00000000  1
  W  W2  1  0.50000000  0.00000000  0.50000000  1
  W  W3  1  0.00000000  0.50000000  0.50000000  1
