# generated using pymatgen
data_3216_Ta2P
_symmetry_space_group_name_H-M   'I4/mmm'
_cell_length_a   4.99793506
_cell_length_b   4.99793506
_cell_length_c   4.69529246
_cell_angle_alpha   90.00000000
_cell_angle_beta   90.00000000
_cell_angle_gamma   124.01331290
_chemical_formula_structural   Ta2P
_chemical_formula_sum   'P2 Ta4'
_cell_volume   97.21874241
loop_
 _symmetry_equiv_pos_site_id
 _symmetry_equiv_pos_as_xyz
  1  'x, y, z'
loop_
 _atom_type_symbol
  P
  Ta
loop_
 _atom_site_type_symbol
 _atom_site_label
 _atom_site_symmetry_multiplicity
 _atom_site_fract_x
 _atom_site_fract_y
 _atom_site_fract_z
 _atom_site_occupancy
  P  P0  1  0.24904018  0.24904018  0.25000000  1
  P  P1  1  0.75095982  0.75095982  0.75000000  1
  Ta  Ta0  1  0.59488685  0.90573057  0.25000000  1
  Ta  Ta1  1  0.40511315  0.09426943  0.75000000  1
  Ta  Ta2  1  0.90573057  0.59488685  0.25000000  1
  Ta  Ta3  1  0.09426943  0.40511315  0.75000000  1
