# generated using pymatgen
data_3220_Pd2Rb4
_symmetry_space_group_name_H-M   'I4/mcm'
_cell_length_a   6.90203531
_cell_length_b   6.90203531
_cell_length_c   6.90203531
_cell_angle_alpha   102.55811555
_cell_angle_beta   102.55811555
_cell_angle_gamma   124.41204610
_chemical_formula_structural   Pd2Rb4
_chemical_formula_sum   'Pd2 Rb4'
_cell_volume   239.96303770
loop_
 _symmetry_equiv_pos_site_id
 _symmetry_equiv_pos_as_xyz
  1  'x, y, z'
loop_
 _atom_type_symbol
  Pd
  Rb
loop_
 _atom_site_type_symbol
 _atom_site_label
 _atom_site_symmetry_multiplicity
 _atom_site_fract_x
 _atom_site_fract_y
 _atom_site_fract_z
 _atom_site_occupancy
  Pd  Pd0  1  0.25000000  0.25000000  0.00000000  1
  Pd  Pd1  1  0.75000000  0.75000000  0.00000000  1
  Rb  Rb0  1  0.17817111  0.32182889  0.50000000  1
  Rb  Rb1  1  0.32182889  0.82182889  0.14365779  1
  Rb  Rb2  1  0.67817111  0.17817111  0.85634221  1
  Rb  Rb3  1  0.82182889  0.67817111  0.50000000  1
