# generated using pymatgen
data_3221_Al3Cu
_symmetry_space_group_name_H-M   'Immm'
_cell_length_a   5.58892172
_cell_length_b   5.58892172
_cell_length_c   5.58892172
_cell_angle_alpha   151.97617237
_cell_angle_beta   130.29073707
_cell_angle_gamma   58.03380958
_chemical_formula_structural   Al3Cu
_chemical_formula_sum   'Al3 Cu1'
_cell_volume   62.14510350
loop_
 _symmetry_equiv_pos_site_id
 _symmetry_equiv_pos_as_xyz
  1  'x, y, z'
loop_
 _atom_type_symbol
  Al
  Cu
loop_
 _atom_site_type_symbol
 _atom_site_label
 _atom_site_symmetry_multiplicity
 _atom_site_fract_x
 _atom_site_fract_y
 _atom_site_fract_z
 _atom_site_occupancy
  Al  Al0  1  0.27423096  0.27423096  1.00000000  1
  Al  Al1  1  0.72576904  0.72576904  0.00000000  1
  Al  Al2  1  0.00000000  0.50000000  0.50000000  1
  Cu  Cu0  1  0.50000000  0.00000000  0.50000000  1
