# generated using pymatgen
data_3222_Ca17Nb12
_symmetry_space_group_name_H-M   'I-43m'
_cell_length_a   10.25594631
_cell_length_b   10.25594631
_cell_length_c   10.25594631
_cell_angle_alpha   109.47122063
_cell_angle_beta   109.47122063
_cell_angle_gamma   109.47122063
_chemical_formula_structural   Ca17Nb12
_chemical_formula_sum   'Ca17 Nb12'
_cell_volume   830.43438740
loop_
 _symmetry_equiv_pos_site_id
 _symmetry_equiv_pos_as_xyz
  1  'x, y, z'
loop_
 _atom_type_symbol
  Ca
  Nb
loop_
 _atom_site_type_symbol
 _atom_site_label
 _atom_site_symmetry_multiplicity
 _atom_site_fract_x
 _atom_site_fract_y
 _atom_site_fract_z
 _atom_site_occupancy
  Ca  Ca0  1  0.70075917  0.28417296  0.70075917  1
  Ca  Ca1  1  0.41658621  0.71582704  0.41658621  1
  Ca  Ca2  1  0.29924083  0.00000000  0.58341379  1
  Ca  Ca3  1  0.58341379  0.00000000  0.29924083  1
  Ca  Ca4  1  0.29924083  0.58341379  0.00000000  1
  Ca  Ca5  1  0.58341379  0.29924083  0.00000000  1
  Ca  Ca6  1  0.41658621  0.41658621  0.71582704  1
  Ca  Ca7  1  0.70075917  0.70075917  0.28417296  1
  Ca  Ca8  1  1.00000000  0.58341379  0.29924083  1
  Ca  Ca9  1  0.00000000  0.29924083  0.58341379  1
  Ca  Ca10  1  0.28417296  0.70075917  0.70075917  1
  Ca  Ca11  1  0.71582704  0.41658621  0.41658621  1
  Ca  Ca12  1  0.00000000  0.32548229  0.00000000  1
  Ca  Ca13  1  0.67451771  0.67451771  0.67451771  1
  Ca  Ca14  1  0.00000000  0.00000000  0.32548229  1
  Ca  Ca15  1  0.32548229  0.00000000  0.00000000  1
  Ca  Ca16  1  0.00000000  0.00000000  0.00000000  1
  Nb  Nb0  1  0.15817703  0.82386904  0.15817703  1
  Nb  Nb1  1  0.33430799  0.17613096  0.33430799  1
  Nb  Nb2  1  0.84182297  0.00000000  0.66569201  1
  Nb  Nb3  1  0.66569201  0.00000000  0.84182297  1
  Nb  Nb4  1  0.84182297  0.66569201  0.00000000  1
  Nb  Nb5  1  0.66569201  0.84182297  0.00000000  1
  Nb  Nb6  1  0.33430799  0.33430799  0.17613096  1
  Nb  Nb7  1  0.15817703  0.15817703  0.82386904  1
  Nb  Nb8  1  0.00000000  0.66569201  0.84182297  1
  Nb  Nb9  1  0.00000000  0.84182297  0.66569201  1
  Nb  Nb10  1  0.82386904  0.15817703  0.15817703  1
  Nb  Nb11  1  0.17613096  0.33430799  0.33430799  1
