# generated using pymatgen
data_3229_Al2Ni4
_symmetry_space_group_name_H-M   'Cmcm'
_cell_length_a   4.42722149
_cell_length_b   4.42722149
_cell_length_c   4.14768261
_cell_angle_alpha   90.00000000
_cell_angle_beta   90.00000000
_cell_angle_gamma   121.05526214
_chemical_formula_structural   Al2Ni4
_chemical_formula_sum   'Al2 Ni4'
_cell_volume   69.64366983
loop_
 _symmetry_equiv_pos_site_id
 _symmetry_equiv_pos_as_xyz
  1  'x, y, z'
loop_
 _atom_type_symbol
  Al
  Ni
loop_
 _atom_site_type_symbol
 _atom_site_label
 _atom_site_symmetry_multiplicity
 _atom_site_fract_x
 _atom_site_fract_y
 _atom_site_fract_z
 _atom_site_occupancy
  Al  Al0  1  0.19553329  0.19553329  0.25000000  1
  Al  Al1  1  0.80446671  0.80446671  0.75000000  1
  Ni  Ni0  1  0.50933061  0.84540015  0.25000000  1
  Ni  Ni1  1  0.49066939  0.15459985  0.75000000  1
  Ni  Ni2  1  0.84540015  0.50933061  0.25000000  1
  Ni  Ni3  1  0.15459985  0.49066939  0.75000000  1
