# generated using pymatgen
data_3230_Ba2Ca2
_symmetry_space_group_name_H-M   'Pmmn'
_cell_length_a   4.19988900
_cell_length_b   6.79644728
_cell_length_c   7.22784138
_cell_angle_alpha   90.00000000
_cell_angle_beta   90.00000000
_cell_angle_gamma   90.00000000
_chemical_formula_structural   Ba2Ca2
_chemical_formula_sum   'Ba2 Ca2'
_cell_volume   206.31384740
loop_
 _symmetry_equiv_pos_site_id
 _symmetry_equiv_pos_as_xyz
  1  'x, y, z'
loop_
 _atom_type_symbol
  Ba
  Ca
loop_
 _atom_site_type_symbol
 _atom_site_label
 _atom_site_symmetry_multiplicity
 _atom_site_fract_x
 _atom_site_fract_y
 _atom_site_fract_z
 _atom_site_occupancy
  Ba  Ba0  1  0.00000000  0.00000000  0.00481453  1
  Ba  Ba1  1  0.50000000  0.50000000  0.82851881  1
  Ca  Ca0  1  0.50000000  0.00000000  0.49755238  1
  Ca  Ca1  1  0.00000000  0.50000000  0.33578095  1
