# generated using pymatgen
data_3231_Fe2As
_symmetry_space_group_name_H-M   'I4/mmm'
_cell_length_a   4.43521737
_cell_length_b   4.43521737
_cell_length_c   4.43521737
_cell_angle_alpha   138.24074179
_cell_angle_beta   138.24074179
_cell_angle_gamma   60.53449079
_chemical_formula_structural   Fe2As
_chemical_formula_sum   'As1 Fe2'
_cell_volume   38.28680368
loop_
 _symmetry_equiv_pos_site_id
 _symmetry_equiv_pos_as_xyz
  1  'x, y, z'
loop_
 _atom_type_symbol
  As
  Fe
loop_
 _atom_site_type_symbol
 _atom_site_label
 _atom_site_symmetry_multiplicity
 _atom_site_fract_x
 _atom_site_fract_y
 _atom_site_fract_z
 _atom_site_occupancy
  As  As0  1  0.00000000  0.00000000  0.00000000  1
  Fe  Fe0  1  0.66900677  0.66900677  0.00000000  1
  Fe  Fe1  1  0.33099323  0.33099323  0.00000000  1
