# generated using pymatgen
data_3232_Al5Pt
_symmetry_space_group_name_H-M   'Amm2'
_cell_length_a   6.97471702
_cell_length_b   6.97471702
_cell_length_c   4.44359640
_cell_angle_alpha   90.00000000
_cell_angle_beta   90.00000000
_cell_angle_gamma   153.63965230
_chemical_formula_structural   Al5Pt
_chemical_formula_sum   'Al5 Pt1'
_cell_volume   95.98107556
loop_
 _symmetry_equiv_pos_site_id
 _symmetry_equiv_pos_as_xyz
  1  'x, y, z'
loop_
 _atom_type_symbol
  Al
  Pt
loop_
 _atom_site_type_symbol
 _atom_site_label
 _atom_site_symmetry_multiplicity
 _atom_site_fract_x
 _atom_site_fract_y
 _atom_site_fract_z
 _atom_site_occupancy
  Al  Al0  1  0.99930645  0.00069355  0.00000000  1
  Al  Al1  1  0.33590022  0.66409978  0.00000000  1
  Al  Al2  1  0.66358287  0.33641713  0.00000000  1
  Al  Al3  1  0.45202826  0.54797174  0.50000000  1
  Al  Al4  1  0.77488273  0.22511727  0.50000000  1
  Pt  Pt0  1  0.10763281  0.89236719  0.50000000  1
