# generated using pymatgen
data_3245_Ba4W4
_symmetry_space_group_name_H-M   'Pnma'
_cell_length_a   3.82515482
_cell_length_b   6.99016948
_cell_length_c   10.01487761
_cell_angle_alpha   90.00000000
_cell_angle_beta   90.00000000
_cell_angle_gamma   90.00000000
_chemical_formula_structural   Ba4W4
_chemical_formula_sum   'Ba4 W4'
_cell_volume   267.78260947
loop_
 _symmetry_equiv_pos_site_id
 _symmetry_equiv_pos_as_xyz
  1  'x, y, z'
loop_
 _atom_type_symbol
  Ba
  W
loop_
 _atom_site_type_symbol
 _atom_site_label
 _atom_site_symmetry_multiplicity
 _atom_site_fract_x
 _atom_site_fract_y
 _atom_site_fract_z
 _atom_site_occupancy
  Ba  Ba0  1  0.75000000  0.88254093  0.18595195  1
  Ba  Ba1  1  0.25000000  0.38254093  0.31404805  1
  Ba  Ba2  1  0.75000000  0.61745907  0.68595195  1
  Ba  Ba3  1  0.25000000  0.11745907  0.81404805  1
  W  W0  1  0.75000000  0.39791034  0.02493125  1
  W  W1  1  0.25000000  0.89791034  0.47506875  1
  W  W2  1  0.75000000  0.10208966  0.52493125  1
  W  W3  1  0.25000000  0.60208966  0.97506875  1
