# generated using pymatgen
data_3249_Ni2Rh4
_symmetry_space_group_name_H-M   'Cmmm'
_cell_length_a   3.73064697
_cell_length_b   5.93144995
_cell_length_c   3.75961751
_cell_angle_alpha   71.52309974
_cell_angle_beta   90.00000000
_cell_angle_gamma   90.00000000
_chemical_formula_structural   Ni2Rh4
_chemical_formula_sum   'Ni2 Rh4'
_cell_volume   78.90487160
loop_
 _symmetry_equiv_pos_site_id
 _symmetry_equiv_pos_as_xyz
  1  'x, y, z'
loop_
 _atom_type_symbol
  Ni
  Rh
loop_
 _atom_site_type_symbol
 _atom_site_label
 _atom_site_symmetry_multiplicity
 _atom_site_fract_x
 _atom_site_fract_y
 _atom_site_fract_z
 _atom_site_occupancy
  Ni  Ni0  1  0.00000000  0.99953672  0.00023164  1
  Ni  Ni1  1  0.00000000  0.66712994  0.66643503  1
  Rh  Rh0  1  0.50000000  0.33333333  0.83333333  1
  Rh  Rh1  1  0.50000000  0.99586005  0.50206997  1
  Rh  Rh2  1  0.00000000  0.33333333  0.33333333  1
  Rh  Rh3  1  0.50000000  0.67080661  0.16459669  1
