# generated using pymatgen
data_3260_P12Br17
_symmetry_space_group_name_H-M   'I-43m'
_cell_length_a   11.75630364
_cell_length_b   11.75630364
_cell_length_c   11.75630364
_cell_angle_alpha   109.47122063
_cell_angle_beta   109.47122063
_cell_angle_gamma   109.47122063
_chemical_formula_structural   P12Br17
_chemical_formula_sum   'Br17 P12'
_cell_volume   1250.80754510
loop_
 _symmetry_equiv_pos_site_id
 _symmetry_equiv_pos_as_xyz
  1  'x, y, z'
loop_
 _atom_type_symbol
  Br
  P
loop_
 _atom_site_type_symbol
 _atom_site_label
 _atom_site_symmetry_multiplicity
 _atom_site_fract_x
 _atom_site_fract_y
 _atom_site_fract_z
 _atom_site_occupancy
  Br  Br0  1  0.58621503  0.39613825  0.58621503  1
  Br  Br1  1  0.19007678  0.60386175  0.19007678  1
  Br  Br2  1  0.41378497  0.00000000  0.80992322  1
  Br  Br3  1  0.80992322  0.00000000  0.41378497  1
  Br  Br4  1  0.41378497  0.80992322  0.00000000  1
  Br  Br5  1  0.80992322  0.41378497  0.00000000  1
  Br  Br6  1  0.19007678  0.19007678  0.60386175  1
  Br  Br7  1  0.58621503  0.58621503  0.39613825  1
  Br  Br8  1  0.00000000  0.80992322  0.41378497  1
  Br  Br9  1  1.00000000  0.41378497  0.80992322  1
  Br  Br10  1  0.39613825  0.58621503  0.58621503  1
  Br  Br11  1  0.60386175  0.19007678  0.19007678  1
  Br  Br12  1  0.00000000  0.22645456  0.00000000  1
  Br  Br13  1  0.77354544  0.77354544  0.77354544  1
  Br  Br14  1  0.00000000  0.00000000  0.22645456  1
  Br  Br15  1  0.22645456  0.00000000  0.00000000  1
  Br  Br16  1  0.00000000  0.00000000  0.00000000  1
  P  P0  1  0.11910493  0.73400649  0.11910493  1
  P  P1  1  0.38509844  0.26599351  0.38509844  1
  P  P2  1  0.88089507  0.00000000  0.61490156  1
  P  P3  1  0.61490156  0.00000000  0.88089507  1
  P  P4  1  0.88089507  0.61490156  0.00000000  1
  P  P5  1  0.61490156  0.88089507  0.00000000  1
  P  P6  1  0.38509844  0.38509844  0.26599351  1
  P  P7  1  0.11910493  0.11910493  0.73400649  1
  P  P8  1  0.00000000  0.61490156  0.88089507  1
  P  P9  1  0.00000000  0.88089507  0.61490156  1
  P  P10  1  0.73400649  0.11910493  0.11910493  1
  P  P11  1  0.26599351  0.38509844  0.38509844  1
