# generated using pymatgen
data_3263_Ir16Nb8
_symmetry_space_group_name_H-M   'Fd -3 m'
_cell_length_a   8.44132858
_cell_length_b   8.44132858
_cell_length_c   8.44132858
_cell_angle_alpha   60.00000000
_cell_angle_beta   60.00000000
_cell_angle_gamma   60.00000000
_chemical_formula_structural   Ir16Nb8
_chemical_formula_sum   'Ir16 Nb8'
_cell_volume   425.32158011
loop_
 _symmetry_equiv_pos_site_id
 _symmetry_equiv_pos_as_xyz
  1  'x, y, z'
loop_
 _atom_type_symbol
  Ir
  Nb
loop_
 _atom_site_type_symbol
 _atom_site_label
 _atom_site_symmetry_multiplicity
 _atom_site_fract_x
 _atom_site_fract_y
 _atom_site_fract_z
 _atom_site_occupancy
  Ir  Ir0  1  0.00000000  0.50000000  0.50000000  1
  Ir  Ir1  1  0.50000000  0.00000000  0.50000000  1
  Ir  Ir2  1  0.50000000  0.50000000  0.00000000  1
  Ir  Ir3  1  0.50000000  0.50000000  0.50000000  1
  Ir  Ir4  1  0.09984485  0.09984485  0.65015515  1
  Ir  Ir5  1  0.09984485  0.65015515  0.09984485  1
  Ir  Ir6  1  0.65015515  0.09984485  0.09984485  1
  Ir  Ir7  1  0.09984485  0.65015515  0.65015515  1
  Ir  Ir8  1  0.65015515  0.09984485  0.65015515  1
  Ir  Ir9  1  0.65015515  0.65015515  0.09984485  1
  Ir  Ir10  1  0.90015515  0.90015515  0.34984485  1
  Ir  Ir11  1  0.90015515  0.34984485  0.90015515  1
  Ir  Ir12  1  0.34984485  0.90015515  0.90015515  1
  Ir  Ir13  1  0.90015515  0.34984485  0.34984485  1
  Ir  Ir14  1  0.34984485  0.90015515  0.34984485  1
  Ir  Ir15  1  0.34984485  0.34984485  0.90015515  1
  Nb  Nb0  1  0.27593923  0.27593923  0.27593923  1
  Nb  Nb1  1  0.27593923  0.27593923  0.67218230  1
  Nb  Nb2  1  0.27593923  0.67218230  0.27593923  1
  Nb  Nb3  1  0.67218230  0.27593923  0.27593923  1
  Nb  Nb4  1  0.72406077  0.72406077  0.72406077  1
  Nb  Nb5  1  0.72406077  0.72406077  0.32781770  1
  Nb  Nb6  1  0.72406077  0.32781770  0.72406077  1
  Nb  Nb7  1  0.32781770  0.72406077  0.72406077  1
