# generated using pymatgen
data_3266_GaMn
_symmetry_space_group_name_H-M   'Fm -3 m'
_cell_length_a   3.43549050
_cell_length_b   3.43549050
_cell_length_c   3.43549050
_cell_angle_alpha   60.00000000
_cell_angle_beta   60.00000000
_cell_angle_gamma   60.00000000
_chemical_formula_structural   GaMn
_chemical_formula_sum   'Ga1 Mn1'
_cell_volume   28.67155572
loop_
 _symmetry_equiv_pos_site_id
 _symmetry_equiv_pos_as_xyz
  1  'x, y, z'
loop_
 _atom_type_symbol
  Ga
  Mn
loop_
 _atom_site_type_symbol
 _atom_site_label
 _atom_site_symmetry_multiplicity
 _atom_site_fract_x
 _atom_site_fract_y
 _atom_site_fract_z
 _atom_site_occupancy
  Ga  Ga0  1  0.00000000  0.00000000  0.00000000  1
  Mn  Mn0  1  0.50000000  0.50000000  0.50000000  1
