# generated using pymatgen
data_3267_AlMn
_symmetry_space_group_name_H-M   'Pm -3 m'
_cell_length_a   4.09720653
_cell_length_b   4.09720653
_cell_length_c   2.94137279
_cell_angle_alpha   90.00000000
_cell_angle_beta   90.00000000
_cell_angle_gamma   90.00000000
_chemical_formula_structural   AlMn
_chemical_formula_sum   'Al2 Mn2'
_cell_volume   49.37712313
loop_
 _symmetry_equiv_pos_site_id
 _symmetry_equiv_pos_as_xyz
  1  'x, y, z'
loop_
 _atom_type_symbol
  Al
  Mn
loop_
 _atom_site_type_symbol
 _atom_site_label
 _atom_site_symmetry_multiplicity
 _atom_site_fract_x
 _atom_site_fract_y
 _atom_site_fract_z
 _atom_site_occupancy
  Al  Al0  1  0.25000000  0.25000000  0.49975866  1
  Al  Al1  1  0.75000000  0.75000000  0.50024134  1
  Mn  Mn0  1  0.25000000  0.75000000  0.00000000  1
  Mn  Mn1  1  0.75000000  0.25000000  0.00000000  1
