# generated using pymatgen
data_3269_Ir2Pb2
_symmetry_space_group_name_H-M   'Imma'
_cell_length_a   6.27819392
_cell_length_b   6.27819392
_cell_length_c   6.27819392
_cell_angle_alpha   152.40514117
_cell_angle_beta   132.93137741
_cell_angle_gamma   55.43317220
_chemical_formula_structural   Ir2Pb2
_chemical_formula_sum   'Ir2 Pb2'
_cell_volume   83.44528939
loop_
 _symmetry_equiv_pos_site_id
 _symmetry_equiv_pos_as_xyz
  1  'x, y, z'
loop_
 _atom_type_symbol
  Ir
  Pb
loop_
 _atom_site_type_symbol
 _atom_site_label
 _atom_site_symmetry_multiplicity
 _atom_site_fract_x
 _atom_site_fract_y
 _atom_site_fract_z
 _atom_site_occupancy
  Ir  Ir0  1  0.97354019  0.97354019  1.00000000  1
  Ir  Ir1  1  0.77645981  0.27645981  0.50000000  1
  Pb  Pb0  1  0.52752579  0.52752579  1.00000000  1
  Pb  Pb1  1  0.22247421  0.72247421  0.50000000  1
