# generated using pymatgen
data_3271_Pt2Sb2
_symmetry_space_group_name_H-M   'Pmmn'
_cell_length_a   3.87503039
_cell_length_b   5.51536517
_cell_length_c   3.96849233
_cell_angle_alpha   90.00000000
_cell_angle_beta   90.00000000
_cell_angle_gamma   90.00000000
_chemical_formula_structural   Pt2Sb2
_chemical_formula_sum   'Pt2 Sb2'
_cell_volume   84.81544212
loop_
 _symmetry_equiv_pos_site_id
 _symmetry_equiv_pos_as_xyz
  1  'x, y, z'
loop_
 _atom_type_symbol
  Pt
  Sb
loop_
 _atom_site_type_symbol
 _atom_site_label
 _atom_site_symmetry_multiplicity
 _atom_site_fract_x
 _atom_site_fract_y
 _atom_site_fract_z
 _atom_site_occupancy
  Pt  Pt0  1  0.00000000  0.00000000  0.13906075  1
  Pt  Pt1  1  0.50000000  0.50000000  0.69427258  1
  Sb  Sb0  1  0.50000000  0.00000000  0.64076466  1
  Sb  Sb1  1  0.00000000  0.50000000  0.19256867  1
