# generated using pymatgen
data_3275_WBr2
_symmetry_space_group_name_H-M   'I4/mmm'
_cell_length_a   6.85289380
_cell_length_b   6.85289380
_cell_length_c   6.85289380
_cell_angle_alpha   153.08336507
_cell_angle_beta   153.08336507
_cell_angle_gamma   38.43330440
_chemical_formula_structural   WBr2
_chemical_formula_sum   'Br2 W1'
_cell_volume   65.84417734
loop_
 _symmetry_equiv_pos_site_id
 _symmetry_equiv_pos_as_xyz
  1  'x, y, z'
loop_
 _atom_type_symbol
  Br
  W
loop_
 _atom_site_type_symbol
 _atom_site_label
 _atom_site_symmetry_multiplicity
 _atom_site_fract_x
 _atom_site_fract_y
 _atom_site_fract_z
 _atom_site_occupancy
  Br  Br0  1  0.95598298  0.95598298  0.00000000  1
  Br  Br1  1  0.71068369  0.71068369  0.00000000  1
  W  W0  1  0.33333333  0.33333333  0.00000000  1
