# generated using pymatgen
data_3276_IrW4
_symmetry_space_group_name_H-M   'I4/mmm'
_cell_length_a   4.06301390
_cell_length_b   6.30259752
_cell_length_c   4.06301390
_cell_angle_alpha   71.19619731
_cell_angle_beta   90.00000000
_cell_angle_gamma   108.80380269
_chemical_formula_structural   IrW4
_chemical_formula_sum   'Ir1 W4'
_cell_volume   92.60532905
loop_
 _symmetry_equiv_pos_site_id
 _symmetry_equiv_pos_as_xyz
  1  'x, y, z'
loop_
 _atom_type_symbol
  Ir
  W
loop_
 _atom_site_type_symbol
 _atom_site_label
 _atom_site_symmetry_multiplicity
 _atom_site_fract_x
 _atom_site_fract_y
 _atom_site_fract_z
 _atom_site_occupancy
  Ir  Ir0  1  0.00000000  0.00000000  0.00000000  1
  W  W0  1  0.25000000  0.50000000  0.25000000  1
  W  W1  1  0.38912553  0.77825106  0.61087447  1
  W  W2  1  0.61087447  0.22174894  0.38912553  1
  W  W3  1  0.75000000  0.50000000  0.75000000  1
