# generated using pymatgen
data_3278_InMn
_symmetry_space_group_name_H-M   'P4/mmm'
_cell_length_a   4.22625621
_cell_length_b   4.22625621
_cell_length_c   3.97552175
_cell_angle_alpha   90.00000000
_cell_angle_beta   90.00000000
_cell_angle_gamma   90.00000000
_chemical_formula_structural   InMn
_chemical_formula_sum   'In2 Mn2'
_cell_volume   71.00775427
loop_
 _symmetry_equiv_pos_site_id
 _symmetry_equiv_pos_as_xyz
  1  'x, y, z'
loop_
 _atom_type_symbol
  In
  Mn
loop_
 _atom_site_type_symbol
 _atom_site_label
 _atom_site_symmetry_multiplicity
 _atom_site_fract_x
 _atom_site_fract_y
 _atom_site_fract_z
 _atom_site_occupancy
  In  In0  1  0.25000000  0.75000000  0.00000000  1
  In  In1  1  0.75000000  0.25000000  0.00000000  1
  Mn  Mn0  1  0.25000000  0.25000000  0.49996911  1
  Mn  Mn1  1  0.75000000  0.75000000  0.50003089  1
