# generated using pymatgen
data_3279_Au12Ni4
_symmetry_space_group_name_H-M   'Pnma'
_cell_length_a   5.39650207
_cell_length_b   8.88362527
_cell_length_c   5.53723487
_cell_angle_alpha   90.00000000
_cell_angle_beta   90.00000000
_cell_angle_gamma   90.00000000
_chemical_formula_structural   Au12Ni4
_chemical_formula_sum   'Au12 Ni4'
_cell_volume   265.45782024
loop_
 _symmetry_equiv_pos_site_id
 _symmetry_equiv_pos_as_xyz
  1  'x, y, z'
loop_
 _atom_type_symbol
  Au
  Ni
loop_
 _atom_site_type_symbol
 _atom_site_label
 _atom_site_symmetry_multiplicity
 _atom_site_fract_x
 _atom_site_fract_y
 _atom_site_fract_z
 _atom_site_occupancy
  Au  Au0  1  0.96339984  0.25000000  0.92829725  1
  Au  Au1  1  0.20773891  0.00943891  0.33012714  1
  Au  Au2  1  0.20773891  0.49056109  0.33012714  1
  Au  Au3  1  0.29226109  0.50943891  0.83012714  1
  Au  Au4  1  0.29226109  0.99056109  0.83012714  1
  Au  Au5  1  0.53660016  0.75000000  0.42829725  1
  Au  Au6  1  0.46339984  0.25000000  0.57170275  1
  Au  Au7  1  0.70773891  0.00943891  0.16987286  1
  Au  Au8  1  0.70773891  0.49056109  0.16987286  1
  Au  Au9  1  0.79226109  0.50943891  0.66987286  1
  Au  Au10  1  0.79226109  0.99056109  0.66987286  1
  Au  Au11  1  0.03660016  0.75000000  0.07170275  1
  Ni  Ni0  1  0.06701155  0.75000000  0.57781040  1
  Ni  Ni1  1  0.43298845  0.25000000  0.07781040  1
  Ni  Ni2  1  0.56701155  0.75000000  0.92218960  1
  Ni  Ni3  1  0.93298845  0.25000000  0.42218960  1
