# generated using pymatgen
data_327_Au2Nb3
_symmetry_space_group_name_H-M   'I4/mmm'
_cell_length_a   3.41652900
_cell_length_b   3.41652900
_cell_length_c   8.02748029
_cell_angle_alpha   102.28660836
_cell_angle_beta   102.28660836
_cell_angle_gamma   90.00000000
_chemical_formula_structural   Au2Nb3
_chemical_formula_sum   'Au2 Nb3'
_cell_volume   89.35816730
loop_
 _symmetry_equiv_pos_site_id
 _symmetry_equiv_pos_as_xyz
  1  'x, y, z'
loop_
 _atom_type_symbol
  Au
  Nb
loop_
 _atom_site_type_symbol
 _atom_site_label
 _atom_site_symmetry_multiplicity
 _atom_site_fract_x
 _atom_site_fract_y
 _atom_site_fract_z
 _atom_site_occupancy
  Au  Au0  1  0.19992536  0.19992536  0.39985071  1
  Au  Au1  1  0.80007386  0.80007386  0.60015031  1
  Nb  Nb0  1  0.00000000  0.00000000  0.00000000  1
  Nb  Nb1  1  0.59986177  0.59986177  0.19972615  1
  Nb  Nb2  1  0.40013679  0.40013679  0.80027357  1
