# generated using pymatgen
data_3287_Cr9Ga12
_symmetry_space_group_name_H-M   'C2/m'
_cell_length_a   6.35915821
_cell_length_b   6.35915821
_cell_length_c   7.88458238
_cell_angle_alpha   101.70779442
_cell_angle_beta   78.29220558
_cell_angle_gamma   104.47234257
_chemical_formula_structural   Cr9Ga12
_chemical_formula_sum   'Cr9 Ga12'
_cell_volume   298.38248717
loop_
 _symmetry_equiv_pos_site_id
 _symmetry_equiv_pos_as_xyz
  1  'x, y, z'
loop_
 _atom_type_symbol
  Cr
  Ga
loop_
 _atom_site_type_symbol
 _atom_site_label
 _atom_site_symmetry_multiplicity
 _atom_site_fract_x
 _atom_site_fract_y
 _atom_site_fract_z
 _atom_site_occupancy
  Cr  Cr0  1  0.00000000  0.00000000  0.00000000  1
  Cr  Cr1  1  0.32848745  0.04551621  0.14883344  1
  Cr  Cr2  1  0.95448369  0.67151244  0.14883344  1
  Cr  Cr3  1  0.49605060  0.50394929  0.32902176  1
  Cr  Cr4  1  0.22667406  0.77332583  0.33591046  1
  Cr  Cr5  1  0.77332529  0.22667461  0.66408929  1
  Cr  Cr6  1  0.50394974  0.49605016  0.67097800  1
  Cr  Cr7  1  0.04551566  0.32848800  0.85116631  1
  Cr  Cr8  1  0.67151190  0.95448424  0.85116631  1
  Ga  Ga0  1  0.71689547  0.28310443  0.09281872  1
  Ga  Ga1  1  0.18659311  0.39134695  0.15240248  1
  Ga  Ga2  1  0.60865295  0.81340679  0.15240248  1
  Ga  Ga3  1  0.94961485  0.05038505  0.35344854  1
  Ga  Ga4  1  0.45890747  0.15659935  0.44380683  1
  Ga  Ga5  1  0.84340055  0.54109242  0.44380683  1
  Ga  Ga6  1  0.15659952  0.45890730  0.55619425  1
  Ga  Ga7  1  0.54109260  0.84340038  0.55619425  1
  Ga  Ga8  1  0.05038550  0.94961440  0.64655122  1
  Ga  Ga9  1  0.39134712  0.18659294  0.84759859  1
  Ga  Ga10  1  0.81340696  0.60865278  0.84759859  1
  Ga  Ga11  1  0.28310487  0.71689502  0.90718104  1
