# generated using pymatgen
data_3288_Au12Pb4
_symmetry_space_group_name_H-M   'Pnma'
_cell_length_a   5.71733573
_cell_length_b   8.05826555
_cell_length_c   7.66812779
_cell_angle_alpha   90.00000000
_cell_angle_beta   90.00000000
_cell_angle_gamma   90.00000000
_chemical_formula_structural   Au12Pb4
_chemical_formula_sum   'Au12 Pb4'
_cell_volume   353.28452315
loop_
 _symmetry_equiv_pos_site_id
 _symmetry_equiv_pos_as_xyz
  1  'x, y, z'
loop_
 _atom_type_symbol
  Au
  Pb
loop_
 _atom_site_type_symbol
 _atom_site_label
 _atom_site_symmetry_multiplicity
 _atom_site_fract_x
 _atom_site_fract_y
 _atom_site_fract_z
 _atom_site_occupancy
  Au  Au0  1  0.13007917  0.92179088  0.75000000  1
  Au  Au1  1  0.63007917  0.57820912  0.25000000  1
  Au  Au2  1  0.36992083  0.42179088  0.75000000  1
  Au  Au3  1  0.86992083  0.07820912  0.25000000  1
  Au  Au4  1  0.58502943  0.28420136  0.04626366  1
  Au  Au5  1  0.08502943  0.21579864  0.95373634  1
  Au  Au6  1  0.91497057  0.78420136  0.45373634  1
  Au  Au7  1  0.41497057  0.71579864  0.54626366  1
  Au  Au8  1  0.41497057  0.71579864  0.95373634  1
  Au  Au9  1  0.91497057  0.78420136  0.04626366  1
  Au  Au10  1  0.08502943  0.21579864  0.54626366  1
  Au  Au11  1  0.58502943  0.28420136  0.45373634  1
  Pb  Pb0  1  0.63530552  0.04336742  0.75000000  1
  Pb  Pb1  1  0.13530552  0.45663258  0.25000000  1
  Pb  Pb2  1  0.86469448  0.54336742  0.75000000  1
  Pb  Pb3  1  0.36469448  0.95663258  0.25000000  1
