# generated using pymatgen
data_3290_Cu4Ga5
_symmetry_space_group_name_H-M   'I4/mmm'
_cell_length_a   6.00133561
_cell_length_b   6.00133561
_cell_length_c   6.00133561
_cell_angle_alpha   95.68622025
_cell_angle_beta   95.68622025
_cell_angle_gamma   143.30608716
_chemical_formula_structural   Cu4Ga5
_chemical_formula_sum   'Cu4 Ga5'
_cell_volume   122.58962259
loop_
 _symmetry_equiv_pos_site_id
 _symmetry_equiv_pos_as_xyz
  1  'x, y, z'
loop_
 _atom_type_symbol
  Cu
  Ga
loop_
 _atom_site_type_symbol
 _atom_site_label
 _atom_site_symmetry_multiplicity
 _atom_site_fract_x
 _atom_site_fract_y
 _atom_site_fract_z
 _atom_site_occupancy
  Cu  Cu0  1  0.65615244  1.00000000  0.65615244  1
  Cu  Cu1  1  0.34384756  1.00000000  0.34384756  1
  Cu  Cu2  1  0.00000000  0.34384756  0.34384756  1
  Cu  Cu3  1  0.00000000  0.65615244  0.65615244  1
  Ga  Ga0  1  0.00000000  0.00000000  0.00000000  1
  Ga  Ga1  1  0.67273681  0.32726319  0.00000000  1
  Ga  Ga2  1  0.32726319  0.67273681  0.00000000  1
  Ga  Ga3  1  0.32726319  0.32726319  0.65452638  1
  Ga  Ga4  1  0.67273681  0.67273681  0.34547362  1
