# generated using pymatgen
data_3291_RhSr8
_symmetry_space_group_name_H-M   'I4/mmm'
_cell_length_a   10.29501966
_cell_length_b   10.29501966
_cell_length_c   10.29501966
_cell_angle_alpha   92.40681565
_cell_angle_beta   92.40681565
_cell_angle_gamma   156.34971155
_chemical_formula_structural   RhSr8
_chemical_formula_sum   'Rh1 Sr8'
_cell_volume   428.42595033
loop_
 _symmetry_equiv_pos_site_id
 _symmetry_equiv_pos_as_xyz
  1  'x, y, z'
loop_
 _atom_type_symbol
  Rh
  Sr
loop_
 _atom_site_type_symbol
 _atom_site_label
 _atom_site_symmetry_multiplicity
 _atom_site_fract_x
 _atom_site_fract_y
 _atom_site_fract_z
 _atom_site_occupancy
  Rh  Rh0  1  0.00000000  0.00000000  0.00000000  1
  Sr  Sr0  1  0.37152304  0.62847696  0.00000000  1
  Sr  Sr1  1  0.62847696  0.37152304  0.00000000  1
  Sr  Sr2  1  0.00000000  0.33393098  0.33393098  1
  Sr  Sr3  1  0.62847696  0.62847696  0.25695392  1
  Sr  Sr4  1  0.33393098  0.00000000  0.33393098  1
  Sr  Sr5  1  0.37152304  0.37152304  0.74304608  1
  Sr  Sr6  1  0.00000000  0.66606902  0.66606902  1
  Sr  Sr7  1  0.66606902  1.00000000  0.66606902  1
