# generated using pymatgen
data_3292_Ni2Ta
_symmetry_space_group_name_H-M   'I4/mmm'
_cell_length_a   3.15640075
_cell_length_b   3.15640075
_cell_length_c   4.53669527
_cell_angle_alpha   110.35736208
_cell_angle_beta   110.35736208
_cell_angle_gamma   90.00000000
_chemical_formula_structural   Ni2Ta
_chemical_formula_sum   'Ni2 Ta1'
_cell_volume   39.35038234
loop_
 _symmetry_equiv_pos_site_id
 _symmetry_equiv_pos_as_xyz
  1  'x, y, z'
loop_
 _atom_type_symbol
  Ni
  Ta
loop_
 _atom_site_type_symbol
 _atom_site_label
 _atom_site_symmetry_multiplicity
 _atom_site_fract_x
 _atom_site_fract_y
 _atom_site_fract_z
 _atom_site_occupancy
  Ni  Ni0  1  0.66675709  0.66675709  0.33351418  1
  Ni  Ni1  1  0.33324291  0.33324291  0.66648582  1
  Ta  Ta0  1  0.00000000  0.00000000  0.00000000  1
