# generated using pymatgen
data_3294_Al4Mo2
_symmetry_space_group_name_H-M   'Imma'
_cell_length_a   9.23709615
_cell_length_b   9.23709615
_cell_length_c   9.23709615
_cell_angle_alpha   163.22108154
_cell_angle_beta   153.81943916
_cell_angle_gamma   31.25861141
_chemical_formula_structural   Al4Mo2
_chemical_formula_sum   'Al4 Mo2'
_cell_volume   100.32375230
loop_
 _symmetry_equiv_pos_site_id
 _symmetry_equiv_pos_as_xyz
  1  'x, y, z'
loop_
 _atom_type_symbol
  Al
  Mo
loop_
 _atom_site_type_symbol
 _atom_site_label
 _atom_site_symmetry_multiplicity
 _atom_site_fract_x
 _atom_site_fract_y
 _atom_site_fract_z
 _atom_site_occupancy
  Al  Al0  1  0.71040041  0.96040041  0.75000000  1
  Al  Al1  1  0.28959959  0.03959959  0.25000000  1
  Al  Al2  1  0.56620660  0.81620660  0.75000000  1
  Al  Al3  1  0.43379340  0.18379340  0.25000000  1
  Mo  Mo0  1  0.14462899  0.39462899  0.75000000  1
  Mo  Mo1  1  0.85537101  0.60537101  0.25000000  1
