# generated using pymatgen
data_3299_KNb3
_symmetry_space_group_name_H-M   'Immm'
_cell_length_a   6.14458878
_cell_length_b   6.14458878
_cell_length_c   6.14458878
_cell_angle_alpha   151.59342841
_cell_angle_beta   123.44525865
_cell_angle_gamma   64.48584682
_chemical_formula_structural   KNb3
_chemical_formula_sum   'K1 Nb3'
_cell_volume   91.23309337
loop_
 _symmetry_equiv_pos_site_id
 _symmetry_equiv_pos_as_xyz
  1  'x, y, z'
loop_
 _atom_type_symbol
  K
  Nb
loop_
 _atom_site_type_symbol
 _atom_site_label
 _atom_site_symmetry_multiplicity
 _atom_site_fract_x
 _atom_site_fract_y
 _atom_site_fract_z
 _atom_site_occupancy
  K  K0  1  0.00000000  0.00000000  0.00000000  1
  Nb  Nb0  1  0.70956263  0.20956263  0.50000000  1
  Nb  Nb1  1  0.50000000  0.50000000  0.00000000  1
  Nb  Nb2  1  0.29043737  0.79043737  0.50000000  1
