# generated using pymatgen
data_3302_CeGa2
_symmetry_space_group_name_H-M   'P6/mmm'
_cell_length_a   4.31496700
_cell_length_b   4.31496686
_cell_length_c   4.36687600
_cell_angle_alpha   90.00000000
_cell_angle_beta   90.00000000
_cell_angle_gamma   120.00084762
_chemical_formula_structural   CeGa2
_chemical_formula_sum   'Ce1 Ga2'
_cell_volume   70.41298012
loop_
 _symmetry_equiv_pos_site_id
 _symmetry_equiv_pos_as_xyz
  1  'x, y, z'
loop_
 _atom_type_symbol
  Ce
  Ga
loop_
 _atom_site_type_symbol
 _atom_site_label
 _atom_site_symmetry_multiplicity
 _atom_site_fract_x
 _atom_site_fract_y
 _atom_site_fract_z
 _atom_site_occupancy
  Ce  Ce0  1  0.00000499  0.00000535  0.00000000  1
  Ga  Ga0  1  0.66670342  0.33339026  0.50000044  1
  Ga  Ga1  1  0.33339157  0.66670515  0.50000044  1
