# generated using pymatgen
data_3303_Rh3Sr
_symmetry_space_group_name_H-M   'P4/mmm'
_cell_length_a   3.08310251
_cell_length_b   3.08310251
_cell_length_c   7.72030076
_cell_angle_alpha   90.00000000
_cell_angle_beta   90.00000000
_cell_angle_gamma   90.26476739
_chemical_formula_structural   Rh3Sr
_chemical_formula_sum   'Rh3 Sr1'
_cell_volume   73.38469829
loop_
 _symmetry_equiv_pos_site_id
 _symmetry_equiv_pos_as_xyz
  1  'x, y, z'
loop_
 _atom_type_symbol
  Rh
  Sr
loop_
 _atom_site_type_symbol
 _atom_site_label
 _atom_site_symmetry_multiplicity
 _atom_site_fract_x
 _atom_site_fract_y
 _atom_site_fract_z
 _atom_site_occupancy
  Rh  Rh0  1  0.00000000  0.00000000  0.94735285  1
  Rh  Rh1  1  0.50000000  0.50000000  0.75000000  1
  Rh  Rh2  1  0.00000000  0.00000000  0.55264715  1
  Sr  Sr0  1  0.50000000  0.50000000  0.25000000  1
