# generated using pymatgen
data_3304_Sn2P4
_symmetry_space_group_name_H-M   'Fd -3 m'
_cell_length_a   5.43595427
_cell_length_b   5.43595427
_cell_length_c   5.43595427
_cell_angle_alpha   60.00000000
_cell_angle_beta   60.00000000
_cell_angle_gamma   60.00000000
_chemical_formula_structural   Sn2P4
_chemical_formula_sum   'P4 Sn2'
_cell_volume   113.58275201
loop_
 _symmetry_equiv_pos_site_id
 _symmetry_equiv_pos_as_xyz
  1  'x, y, z'
loop_
 _atom_type_symbol
  P
  Sn
loop_
 _atom_site_type_symbol
 _atom_site_label
 _atom_site_symmetry_multiplicity
 _atom_site_fract_x
 _atom_site_fract_y
 _atom_site_fract_z
 _atom_site_occupancy
  P  P0  1  0.50000000  0.50000000  0.50000000  1
  P  P1  1  0.00000000  0.50000000  0.00000000  1
  P  P2  1  0.50000000  0.00000000  0.00000000  1
  P  P3  1  0.50000000  0.50000000  0.00000000  1
  Sn  Sn0  1  0.87500000  0.87500000  0.37500000  1
  Sn  Sn1  1  0.12500000  0.12500000  0.62500000  1
