# generated using pymatgen
data_3306_Fe4Br12
_symmetry_space_group_name_H-M   'Pnma'
_cell_length_a   5.62926763
_cell_length_b   6.90779261
_cell_length_c   10.62070020
_cell_angle_alpha   90.00000000
_cell_angle_beta   90.00000000
_cell_angle_gamma   90.00000000
_chemical_formula_structural   Fe4Br12
_chemical_formula_sum   'Br12 Fe4'
_cell_volume   412.99456546
loop_
 _symmetry_equiv_pos_site_id
 _symmetry_equiv_pos_as_xyz
  1  'x, y, z'
loop_
 _atom_type_symbol
  Br
  Fe
loop_
 _atom_site_type_symbol
 _atom_site_label
 _atom_site_symmetry_multiplicity
 _atom_site_fract_x
 _atom_site_fract_y
 _atom_site_fract_z
 _atom_site_occupancy
  Br  Br0  1  0.27406748  0.97964784  0.75000000  1
  Br  Br1  1  0.77406748  0.52035216  0.25000000  1
  Br  Br2  1  0.22593252  0.47964784  0.75000000  1
  Br  Br3  1  0.72593252  0.02035216  0.25000000  1
  Br  Br4  1  0.76157870  0.16941281  0.89562273  1
  Br  Br5  1  0.26157870  0.33058719  0.10437727  1
  Br  Br6  1  0.73842130  0.66941281  0.60437727  1
  Br  Br7  1  0.23842130  0.83058719  0.39562273  1
  Br  Br8  1  0.23842130  0.83058719  0.10437727  1
  Br  Br9  1  0.73842130  0.66941281  0.89562273  1
  Br  Br10  1  0.26157870  0.33058719  0.39562273  1
  Br  Br11  1  0.76157870  0.16941281  0.60437727  1
  Fe  Fe0  1  0.67896823  0.92771148  0.75000000  1
  Fe  Fe1  1  0.17896823  0.57228852  0.25000000  1
  Fe  Fe2  1  0.82103177  0.42771148  0.75000000  1
  Fe  Fe3  1  0.32103177  0.07228852  0.25000000  1
