# generated using pymatgen
data_3307_AlCs
_symmetry_space_group_name_H-M   'P4/mmm'
_cell_length_a   3.65250917
_cell_length_b   5.16542800
_cell_length_c   5.79372200
_cell_angle_alpha   90.00000000
_cell_angle_beta   90.00000000
_cell_angle_gamma   45.00000000
_chemical_formula_structural   AlCs
_chemical_formula_sum   'Al1 Cs1'
_cell_volume   77.29302094
loop_
 _symmetry_equiv_pos_site_id
 _symmetry_equiv_pos_as_xyz
  1  'x, y, z'
loop_
 _atom_type_symbol
  Al
  Cs
loop_
 _atom_site_type_symbol
 _atom_site_label
 _atom_site_symmetry_multiplicity
 _atom_site_fract_x
 _atom_site_fract_y
 _atom_site_fract_z
 _atom_site_occupancy
  Al  Al0  1  0.00000000  0.00000000  0.00000000  1
  Cs  Cs0  1  0.99999836  0.50000121  0.49999982  1
