# generated using pymatgen
data_3310_KAs
_symmetry_space_group_name_H-M   'P-6m2'
_cell_length_a   3.38874400
_cell_length_b   3.38866572
_cell_length_c   5.44666100
_cell_angle_alpha   90.00000000
_cell_angle_beta   90.00000000
_cell_angle_gamma   120.00076417
_chemical_formula_structural   KAs
_chemical_formula_sum   'As1 K1'
_cell_volume   54.16579528
loop_
 _symmetry_equiv_pos_site_id
 _symmetry_equiv_pos_as_xyz
  1  'x, y, z'
loop_
 _atom_type_symbol
  As
  K
loop_
 _atom_site_type_symbol
 _atom_site_label
 _atom_site_symmetry_multiplicity
 _atom_site_fract_x
 _atom_site_fract_y
 _atom_site_fract_z
 _atom_site_occupancy
  As  As0  1  0.66666678  0.33333465  0.74999901  1
  K  K0  1  0.33333295  0.66666590  0.24999906  1
