# generated using pymatgen
data_3313_Sn2W
_symmetry_space_group_name_H-M   'I4/mmm'
_cell_length_a   8.29544482
_cell_length_b   8.29544482
_cell_length_c   8.29544482
_cell_angle_alpha   159.40235576
_cell_angle_beta   159.40235576
_cell_angle_gamma   29.29078116
_chemical_formula_structural   Sn2W
_chemical_formula_sum   'Sn2 W1'
_cell_volume   70.61250943
loop_
 _symmetry_equiv_pos_site_id
 _symmetry_equiv_pos_as_xyz
  1  'x, y, z'
loop_
 _atom_type_symbol
  Sn
  W
loop_
 _atom_site_type_symbol
 _atom_site_label
 _atom_site_symmetry_multiplicity
 _atom_site_fract_x
 _atom_site_fract_y
 _atom_site_fract_z
 _atom_site_occupancy
  Sn  Sn0  1  0.86176460  0.86176460  0.00000000  1
  Sn  Sn1  1  0.13823540  0.13823540  0.00000000  1
  W  W0  1  0.50000000  0.50000000  0.00000000  1
