# generated using pymatgen
data_3316_Ta5Br4
_symmetry_space_group_name_H-M   'I4/mmm'
_cell_length_a   7.72999781
_cell_length_b   7.72999781
_cell_length_c   7.72999781
_cell_angle_alpha   92.47299036
_cell_angle_beta   92.47299036
_cell_angle_gamma   156.02222358
_chemical_formula_structural   Ta5Br4
_chemical_formula_sum   'Br4 Ta5'
_cell_volume   183.60950299
loop_
 _symmetry_equiv_pos_site_id
 _symmetry_equiv_pos_as_xyz
  1  'x, y, z'
loop_
 _atom_type_symbol
  Br
  Ta
loop_
 _atom_site_type_symbol
 _atom_site_label
 _atom_site_symmetry_multiplicity
 _atom_site_fract_x
 _atom_site_fract_y
 _atom_site_fract_z
 _atom_site_occupancy
  Br  Br0  1  0.69798576  1.00000000  0.69798576  1
  Br  Br1  1  0.30201424  1.00000000  0.30201424  1
  Br  Br2  1  1.00000000  0.30201424  0.30201424  1
  Br  Br3  1  0.00000000  0.69798576  0.69798576  1
  Ta  Ta0  1  0.00000000  0.00000000  0.00000000  1
  Ta  Ta1  1  0.65259372  0.34740628  0.00000000  1
  Ta  Ta2  1  0.34740628  0.65259372  0.00000000  1
  Ta  Ta3  1  0.34740628  0.34740628  0.69481256  1
  Ta  Ta4  1  0.65259372  0.65259372  0.30518744  1
