# generated using pymatgen
data_3324_Cs2Ni6
_symmetry_space_group_name_H-M   'P6_3/mmc'
_cell_length_a   7.54550421
_cell_length_b   7.53918281
_cell_length_c   3.98997371
_cell_angle_alpha   90.00000000
_cell_angle_beta   90.00000000
_cell_angle_gamma   119.99444261
_chemical_formula_structural   Cs2Ni6
_chemical_formula_sum   'Cs2 Ni6'
_cell_volume   196.57918183
loop_
 _symmetry_equiv_pos_site_id
 _symmetry_equiv_pos_as_xyz
  1  'x, y, z'
loop_
 _atom_type_symbol
  Cs
  Ni
loop_
 _atom_site_type_symbol
 _atom_site_label
 _atom_site_symmetry_multiplicity
 _atom_site_fract_x
 _atom_site_fract_y
 _atom_site_fract_z
 _atom_site_occupancy
  Cs  Cs0  1  0.66657622  0.33324432  0.24999900  1
  Cs  Cs1  1  0.33344751  0.66678404  0.74999952  1
  Ni  Ni0  1  0.10338735  0.20691749  0.24999900  1
  Ni  Ni1  1  0.79307235  0.89647781  0.24999900  1
  Ni  Ni2  1  0.10341273  0.89643844  0.24999900  1
  Ni  Ni3  1  0.89660265  0.10351656  0.74999952  1
  Ni  Ni4  1  0.20685298  0.10351171  0.74999952  1
  Ni  Ni5  1  0.89664879  0.79310668  0.74999952  1
