# generated using pymatgen
data_3326_W4P3
_symmetry_space_group_name_H-M   'I4/mmm'
_cell_length_a   10.77317766
_cell_length_b   10.77317766
_cell_length_c   10.77317766
_cell_angle_alpha   163.53256482
_cell_angle_beta   163.53256482
_cell_angle_gamma   23.37006330
_chemical_formula_structural   W4P3
_chemical_formula_sum   'P3 W4'
_cell_volume   100.45035832
loop_
 _symmetry_equiv_pos_site_id
 _symmetry_equiv_pos_as_xyz
  1  'x, y, z'
loop_
 _atom_type_symbol
  P
  W
loop_
 _atom_site_type_symbol
 _atom_site_label
 _atom_site_symmetry_multiplicity
 _atom_site_fract_x
 _atom_site_fract_y
 _atom_site_fract_z
 _atom_site_occupancy
  P  P0  1  0.00000000  0.00000000  0.00000000  1
  P  P1  1  0.71351042  0.71351042  0.00000000  1
  P  P2  1  0.28648958  0.28648958  0.00000000  1
  W  W0  1  0.83811247  0.83811247  0.00000000  1
  W  W1  1  0.16188753  0.16188753  0.00000000  1
  W  W2  1  0.56911156  0.56911156  0.00000000  1
  W  W3  1  0.43088844  0.43088844  0.00000000  1
