# generated using pymatgen
data_3328_Ag2Ga4
_symmetry_space_group_name_H-M   'Cmcm'
_cell_length_a   6.60648195
_cell_length_b   6.60648195
_cell_length_c   4.07832896
_cell_angle_alpha   90.00000000
_cell_angle_beta   90.00000000
_cell_angle_gamma   142.29496645
_chemical_formula_structural   Ag2Ga4
_chemical_formula_sum   'Ag2 Ga4'
_cell_volume   108.86487649
loop_
 _symmetry_equiv_pos_site_id
 _symmetry_equiv_pos_as_xyz
  1  'x, y, z'
loop_
 _atom_type_symbol
  Ag
  Ga
loop_
 _atom_site_type_symbol
 _atom_site_label
 _atom_site_symmetry_multiplicity
 _atom_site_fract_x
 _atom_site_fract_y
 _atom_site_fract_z
 _atom_site_occupancy
  Ag  Ag0  1  0.91369277  0.08630723  0.25000000  1
  Ag  Ag1  1  0.08630723  0.91369277  0.75000000  1
  Ga  Ga0  1  0.57930824  0.42069176  0.25000000  1
  Ga  Ga1  1  0.42069176  0.57930824  0.75000000  1
  Ga  Ga2  1  0.25044355  0.74955645  0.25000000  1
  Ga  Ga3  1  0.74955645  0.25044355  0.75000000  1
