# generated using pymatgen
data_3332_Nb4Br
_symmetry_space_group_name_H-M   'I4/mmm'
_cell_length_a   7.71737975
_cell_length_b   7.71737975
_cell_length_c   7.71737975
_cell_angle_alpha   151.83199394
_cell_angle_beta   151.83199394
_cell_angle_gamma   40.25869801
_chemical_formula_structural   Nb4Br
_chemical_formula_sum   'Br1 Nb4'
_cell_volume   102.22082040
loop_
 _symmetry_equiv_pos_site_id
 _symmetry_equiv_pos_as_xyz
  1  'x, y, z'
loop_
 _atom_type_symbol
  Br
  Nb
loop_
 _atom_site_type_symbol
 _atom_site_label
 _atom_site_symmetry_multiplicity
 _atom_site_fract_x
 _atom_site_fract_y
 _atom_site_fract_z
 _atom_site_occupancy
  Br  Br0  1  0.00000000  0.00000000  0.00000000  1
  Nb  Nb0  1  0.25000000  0.75000000  0.50000000  1
  Nb  Nb1  1  0.75000000  0.25000000  0.50000000  1
  Nb  Nb2  1  0.60120454  0.60120454  0.00000000  1
  Nb  Nb3  1  0.39879546  0.39879546  0.00000000  1
