# generated using pymatgen
data_3337_K2Nb2
_symmetry_space_group_name_H-M   'Cmcm'
_cell_length_a   7.04348003
_cell_length_b   7.04348003
_cell_length_c   4.16405291
_cell_angle_alpha   90.00000000
_cell_angle_beta   90.00000000
_cell_angle_gamma   128.41627848
_chemical_formula_structural   K2Nb2
_chemical_formula_sum   'K2 Nb2'
_cell_volume   161.85987838
loop_
 _symmetry_equiv_pos_site_id
 _symmetry_equiv_pos_as_xyz
  1  'x, y, z'
loop_
 _atom_type_symbol
  K
  Nb
loop_
 _atom_site_type_symbol
 _atom_site_label
 _atom_site_symmetry_multiplicity
 _atom_site_fract_x
 _atom_site_fract_y
 _atom_site_fract_z
 _atom_site_occupancy
  K  K0  1  0.85490885  0.14509115  0.75000000  1
  K  K1  1  0.14509115  0.85490885  0.25000000  1
  Nb  Nb0  1  0.54129788  0.45870212  0.75000000  1
  Nb  Nb1  1  0.45870212  0.54129788  0.25000000  1
