# generated using pymatgen
data_3338_Ba4In2
_symmetry_space_group_name_H-M   'C2/m'
_cell_length_a   10.62256474
_cell_length_b   10.62256474
_cell_length_c   7.10449749
_cell_angle_alpha   59.99604920
_cell_angle_beta   59.99604920
_cell_angle_gamma   27.33772290
_chemical_formula_structural   Ba4In2
_chemical_formula_sum   'Ba4 In2'
_cell_volume   315.65651940
loop_
 _symmetry_equiv_pos_site_id
 _symmetry_equiv_pos_as_xyz
  1  'x, y, z'
loop_
 _atom_type_symbol
  Ba
  In
loop_
 _atom_site_type_symbol
 _atom_site_label
 _atom_site_symmetry_multiplicity
 _atom_site_fract_x
 _atom_site_fract_y
 _atom_site_fract_z
 _atom_site_occupancy
  Ba  Ba0  1  0.35115420  0.35115420  0.36762539  1
  Ba  Ba1  1  0.60527942  0.60527942  0.74670109  1
  Ba  Ba2  1  0.78360947  0.78360947  0.97552113  1
  Ba  Ba3  1  0.03773468  0.03773468  0.35459683  1
  In  In0  1  0.96073608  0.96073608  0.96619300  1
  In  In1  1  0.42815281  0.42815281  0.75602922  1
