# generated using pymatgen
data_3339_Pd6V18
_symmetry_space_group_name_H-M   'Pmmn'
_cell_length_a   5.25539338
_cell_length_b   4.86998148
_cell_length_c   13.18194778
_cell_angle_alpha   90.00000000
_cell_angle_beta   90.00000000
_cell_angle_gamma   90.00000000
_chemical_formula_structural   Pd6V18
_chemical_formula_sum   'Pd6 V18'
_cell_volume   337.37440075
loop_
 _symmetry_equiv_pos_site_id
 _symmetry_equiv_pos_as_xyz
  1  'x, y, z'
loop_
 _atom_type_symbol
  Pd
  V
loop_
 _atom_site_type_symbol
 _atom_site_label
 _atom_site_symmetry_multiplicity
 _atom_site_fract_x
 _atom_site_fract_y
 _atom_site_fract_z
 _atom_site_occupancy
  Pd  Pd0  1  0.25000000  0.05384153  0.25000000  1
  Pd  Pd1  1  0.25000000  0.64194282  0.58343245  1
  Pd  Pd2  1  0.25000000  0.64194282  0.91656755  1
  Pd  Pd3  1  0.75000000  0.94615847  0.75000000  1
  Pd  Pd4  1  0.75000000  0.35805718  0.08343245  1
  Pd  Pd5  1  0.75000000  0.35805718  0.41656755  1
  V  V0  1  0.00048997  0.14609687  0.57981946  1
  V  V1  1  0.00048997  0.14609687  0.92018054  1
  V  V2  1  0.00460227  0.57769396  0.25000000  1
  V  V3  1  0.99539773  0.42230604  0.75000000  1
  V  V4  1  0.99951003  0.85390313  0.07981946  1
  V  V5  1  0.99951003  0.85390313  0.42018054  1
  V  V6  1  0.25000000  0.93213503  0.75000000  1
  V  V7  1  0.25000000  0.35123936  0.09012449  1
  V  V8  1  0.25000000  0.35123936  0.40987551  1
  V  V9  1  0.49951003  0.14609687  0.57981946  1
  V  V10  1  0.49951003  0.14609687  0.92018054  1
  V  V11  1  0.49539773  0.57769396  0.25000000  1
  V  V12  1  0.50460227  0.42230604  0.75000000  1
  V  V13  1  0.50048997  0.85390313  0.07981946  1
  V  V14  1  0.50048997  0.85390313  0.42018054  1
  V  V15  1  0.75000000  0.06786497  0.25000000  1
  V  V16  1  0.75000000  0.64876064  0.59012449  1
  V  V17  1  0.75000000  0.64876064  0.90987551  1
