# generated using pymatgen
data_333_K2P2
_symmetry_space_group_name_H-M   'Cmcm'
_cell_length_a   6.24244857
_cell_length_b   6.24244857
_cell_length_c   3.92198089
_cell_angle_alpha   89.57570315
_cell_angle_beta   89.57570315
_cell_angle_gamma   47.90426349
_chemical_formula_structural   K2P2
_chemical_formula_sum   'K2 P2'
_cell_volume   113.40184579
loop_
 _symmetry_equiv_pos_site_id
 _symmetry_equiv_pos_as_xyz
  1  'x, y, z'
loop_
 _atom_type_symbol
  K
  P
loop_
 _atom_site_type_symbol
 _atom_site_label
 _atom_site_symmetry_multiplicity
 _atom_site_fract_x
 _atom_site_fract_y
 _atom_site_fract_z
 _atom_site_occupancy
  K  K0  1  0.01625325  0.01625325  0.11895752  1
  K  K1  1  0.73374675  0.73374675  0.63104248  1
  P  P0  1  0.32196634  0.32196634  0.12693943  1
  P  P1  1  0.42803366  0.42803366  0.62306057  1
