# generated using pymatgen
data_3344_AgGa3
_symmetry_space_group_name_H-M   'Pmmm'
_cell_length_a   2.99494471
_cell_length_b   4.02438879
_cell_length_c   6.03966193
_cell_angle_alpha   90.00000000
_cell_angle_beta   90.00000000
_cell_angle_gamma   90.00000000
_chemical_formula_structural   AgGa3
_chemical_formula_sum   'Ag1 Ga3'
_cell_volume   72.79496968
loop_
 _symmetry_equiv_pos_site_id
 _symmetry_equiv_pos_as_xyz
  1  'x, y, z'
loop_
 _atom_type_symbol
  Ag
  Ga
loop_
 _atom_site_type_symbol
 _atom_site_label
 _atom_site_symmetry_multiplicity
 _atom_site_fract_x
 _atom_site_fract_y
 _atom_site_fract_z
 _atom_site_occupancy
  Ag  Ag0  1  0.00000000  0.00000000  0.00000000  1
  Ga  Ga0  1  0.50000000  0.50000000  0.74970403  1
  Ga  Ga1  1  0.00000000  0.00000000  0.50000000  1
  Ga  Ga2  1  0.50000000  0.50000000  0.25029597  1
