# generated using pymatgen
data_3348_Au12Sb17
_symmetry_space_group_name_H-M   'I-43m'
_cell_length_a   9.63116695
_cell_length_b   9.63116695
_cell_length_c   9.63116695
_cell_angle_alpha   109.47122063
_cell_angle_beta   109.47122063
_cell_angle_gamma   109.47122063
_chemical_formula_structural   Au12Sb17
_chemical_formula_sum   'Au12 Sb17'
_cell_volume   687.72504813
loop_
 _symmetry_equiv_pos_site_id
 _symmetry_equiv_pos_as_xyz
  1  'x, y, z'
loop_
 _atom_type_symbol
  Au
  Sb
loop_
 _atom_site_type_symbol
 _atom_site_label
 _atom_site_symmetry_multiplicity
 _atom_site_fract_x
 _atom_site_fract_y
 _atom_site_fract_z
 _atom_site_occupancy
  Au  Au0  1  0.19407329  0.79312127  0.19407329  1
  Au  Au1  1  0.40095202  0.20687873  0.40095202  1
  Au  Au2  1  0.80592671  0.00000000  0.59904798  1
  Au  Au3  1  0.59904798  0.00000000  0.80592671  1
  Au  Au4  1  0.80592671  0.59904798  0.00000000  1
  Au  Au5  1  0.59904798  0.80592671  0.00000000  1
  Au  Au6  1  0.40095202  0.40095202  0.20687873  1
  Au  Au7  1  0.19407329  0.19407329  0.79312127  1
  Au  Au8  1  1.00000000  0.59904798  0.80592671  1
  Au  Au9  1  1.00000000  0.80592671  0.59904798  1
  Au  Au10  1  0.79312127  0.19407329  0.19407329  1
  Au  Au11  1  0.20687873  0.40095202  0.40095202  1
  Sb  Sb0  1  0.71010092  0.27603709  0.71010092  1
  Sb  Sb1  1  0.43406384  0.72396291  0.43406384  1
  Sb  Sb2  1  0.28989908  0.00000000  0.56593616  1
  Sb  Sb3  1  0.56593616  0.00000000  0.28989908  1
  Sb  Sb4  1  0.28989908  0.56593616  0.00000000  1
  Sb  Sb5  1  0.56593616  0.28989908  0.00000000  1
  Sb  Sb6  1  0.43406384  0.43406384  0.72396291  1
  Sb  Sb7  1  0.71010092  0.71010092  0.27603709  1
  Sb  Sb8  1  1.00000000  0.56593616  0.28989908  1
  Sb  Sb9  1  1.00000000  0.28989908  0.56593616  1
  Sb  Sb10  1  0.27603709  0.71010092  0.71010092  1
  Sb  Sb11  1  0.72396291  0.43406384  0.43406384  1
  Sb  Sb12  1  1.00000000  0.29775561  0.00000000  1
  Sb  Sb13  1  0.70224439  0.70224439  0.70224439  1
  Sb  Sb14  1  1.00000000  1.00000000  0.29775561  1
  Sb  Sb15  1  0.29775561  0.00000000  0.00000000  1
  Sb  Sb16  1  0.00000000  0.00000000  0.00000000  1
