# generated using pymatgen
data_3351_Ga4Mn2
_symmetry_space_group_name_H-M   'Fd -3 m'
_cell_length_a   4.92788518
_cell_length_b   4.92788518
_cell_length_c   4.92788518
_cell_angle_alpha   60.00000000
_cell_angle_beta   60.00000000
_cell_angle_gamma   60.00000000
_chemical_formula_structural   Ga4Mn2
_chemical_formula_sum   'Ga4 Mn2'
_cell_volume   84.61877689
loop_
 _symmetry_equiv_pos_site_id
 _symmetry_equiv_pos_as_xyz
  1  'x, y, z'
loop_
 _atom_type_symbol
  Ga
  Mn
loop_
 _atom_site_type_symbol
 _atom_site_label
 _atom_site_symmetry_multiplicity
 _atom_site_fract_x
 _atom_site_fract_y
 _atom_site_fract_z
 _atom_site_occupancy
  Ga  Ga0  1  0.50000000  0.50000000  0.50000000  1
  Ga  Ga1  1  0.00000000  0.50000000  0.50000000  1
  Ga  Ga2  1  0.00000000  0.50000000  0.00000000  1
  Ga  Ga3  1  0.00000000  0.00000000  0.50000000  1
  Mn  Mn0  1  0.62500000  0.12500000  0.12500000  1
  Mn  Mn1  1  0.37500000  0.87500000  0.87500000  1
