# generated using pymatgen
data_3353_Rb2Sb4
_symmetry_space_group_name_H-M   'C2/m'
_cell_length_a   4.24575018
_cell_length_b   7.40222554
_cell_length_c   8.72732245
_cell_angle_alpha   103.47722771
_cell_angle_beta   90.00000000
_cell_angle_gamma   106.66580114
_chemical_formula_structural   Rb2Sb4
_chemical_formula_sum   'Rb2 Sb4'
_cell_volume   254.86652034
loop_
 _symmetry_equiv_pos_site_id
 _symmetry_equiv_pos_as_xyz
  1  'x, y, z'
loop_
 _atom_type_symbol
  Rb
  Sb
loop_
 _atom_site_type_symbol
 _atom_site_label
 _atom_site_symmetry_multiplicity
 _atom_site_fract_x
 _atom_site_fract_y
 _atom_site_fract_z
 _atom_site_occupancy
  Rb  Rb0  1  0.83527930  0.67055861  0.30223867  1
  Rb  Rb1  1  0.16472070  0.32944139  0.69776133  1
  Sb  Sb0  1  0.09526963  0.19053926  0.10752642  1
  Sb  Sb1  1  0.56525896  0.13051792  0.31373658  1
  Sb  Sb2  1  0.43474104  0.86948208  0.68626342  1
  Sb  Sb3  1  0.90473037  0.80946074  0.89247358  1
