# generated using pymatgen
data_3354_Pb4As16
_symmetry_space_group_name_H-M   'I23'
_cell_length_a   8.54674395
_cell_length_b   8.54674395
_cell_length_c   8.54674395
_cell_angle_alpha   109.47122063
_cell_angle_beta   109.47122063
_cell_angle_gamma   109.47122063
_chemical_formula_structural   Pb4As16
_chemical_formula_sum   'As16 Pb4'
_cell_volume   480.59604095
loop_
 _symmetry_equiv_pos_site_id
 _symmetry_equiv_pos_as_xyz
  1  'x, y, z'
loop_
 _atom_type_symbol
  As
  Pb
loop_
 _atom_site_type_symbol
 _atom_site_label
 _atom_site_symmetry_multiplicity
 _atom_site_fract_x
 _atom_site_fract_y
 _atom_site_fract_z
 _atom_site_occupancy
  As  As0  1  0.75168900  0.75168900  0.75168900  1
  As  As1  1  0.24831100  0.00000000  0.00000000  1
  As  As2  1  0.00000000  0.24831100  0.00000000  1
  As  As3  1  0.00000000  0.00000000  0.24831100  1
  As  As4  1  0.66916603  0.66916603  0.00000000  1
  As  As5  1  0.33083397  0.33083397  0.00000000  1
  As  As6  1  0.66916603  0.00000000  0.66916603  1
  As  As7  1  0.33083397  0.00000000  0.33083397  1
  As  As8  1  0.00000000  0.66916603  0.66916603  1
  As  As9  1  0.00000000  0.33083397  0.33083397  1
  As  As10  1  0.20713800  0.70713800  0.50000000  1
  As  As11  1  0.79286200  0.29286200  0.50000000  1
  As  As12  1  0.70713800  0.50000000  0.20713800  1
  As  As13  1  0.29286200  0.50000000  0.79286200  1
  As  As14  1  0.50000000  0.20713800  0.70713800  1
  As  As15  1  0.50000000  0.79286200  0.29286200  1
  Pb  Pb0  1  0.42146090  0.42146090  0.42146090  1
  Pb  Pb1  1  0.57853910  0.00000000  0.00000000  1
  Pb  Pb2  1  0.00000000  0.57853910  0.00000000  1
  Pb  Pb3  1  0.00000000  0.00000000  0.57853910  1
