# generated using pymatgen
data_3356_Pd4Ta2
_symmetry_space_group_name_H-M   'I4/mcm'
_cell_length_a   5.37773768
_cell_length_b   5.16677116
_cell_length_c   5.16677116
_cell_angle_alpha   105.71381164
_cell_angle_beta   121.36014012
_cell_angle_gamma   58.63985988
_chemical_formula_structural   Pd4Ta2
_chemical_formula_sum   'Pd4 Ta2'
_cell_volume   104.68039873
loop_
 _symmetry_equiv_pos_site_id
 _symmetry_equiv_pos_as_xyz
  1  'x, y, z'
loop_
 _atom_type_symbol
  Pd
  Ta
loop_
 _atom_site_type_symbol
 _atom_site_label
 _atom_site_symmetry_multiplicity
 _atom_site_fract_x
 _atom_site_fract_y
 _atom_site_fract_z
 _atom_site_occupancy
  Pd  Pd0  1  0.14804006  0.20391989  0.50000000  1
  Pd  Pd1  1  0.35195994  0.50000000  0.20391989  1
  Pd  Pd2  1  0.64804006  0.50000000  0.79608011  1
  Pd  Pd3  1  0.85195994  0.79608011  0.50000000  1
  Ta  Ta0  1  0.25000000  0.00000000  0.00000000  1
  Ta  Ta1  1  0.75000000  0.00000000  0.00000000  1
