# generated using pymatgen
data_3359_Ga2Ta
_symmetry_space_group_name_H-M   'I4/mmm'
_cell_length_a   5.36428131
_cell_length_b   5.36428131
_cell_length_c   5.36428131
_cell_angle_alpha   145.18101256
_cell_angle_beta   145.18101256
_cell_angle_gamma   50.06485651
_chemical_formula_structural   Ga2Ta
_chemical_formula_sum   'Ga2 Ta1'
_cell_volume   50.08130357
loop_
 _symmetry_equiv_pos_site_id
 _symmetry_equiv_pos_as_xyz
  1  'x, y, z'
loop_
 _atom_type_symbol
  Ga
  Ta
loop_
 _atom_site_type_symbol
 _atom_site_label
 _atom_site_symmetry_multiplicity
 _atom_site_fract_x
 _atom_site_fract_y
 _atom_site_fract_z
 _atom_site_occupancy
  Ga  Ga0  1  0.67314473  0.67314473  0.00000000  1
  Ga  Ga1  1  0.32685527  0.32685527  0.00000000  1
  Ta  Ta0  1  0.00000000  0.00000000  0.00000000  1
