# generated using pymatgen
data_3368_Pt2Sb2
_symmetry_space_group_name_H-M   'Cmcm'
_cell_length_a   4.96156253
_cell_length_b   4.62535206
_cell_length_c   4.63934307
_cell_angle_alpha   62.17885695
_cell_angle_beta   90.00000000
_cell_angle_gamma   90.00000000
_chemical_formula_structural   Pt2Sb2
_chemical_formula_sum   'Pt2 Sb2'
_cell_volume   94.16137982
loop_
 _symmetry_equiv_pos_site_id
 _symmetry_equiv_pos_as_xyz
  1  'x, y, z'
loop_
 _atom_type_symbol
  Pt
  Sb
loop_
 _atom_site_type_symbol
 _atom_site_label
 _atom_site_symmetry_multiplicity
 _atom_site_fract_x
 _atom_site_fract_y
 _atom_site_fract_z
 _atom_site_occupancy
  Pt  Pt0  1  0.00000000  0.97049323  0.96901141  1
  Pt  Pt1  1  0.50000000  0.77950677  0.78098859  1
  Sb  Sb0  1  0.00000000  0.62656844  0.62830011  1
  Sb  Sb1  1  0.50000000  0.12343156  0.12169989  1
