# generated using pymatgen
data_336_KP3
_symmetry_space_group_name_H-M   'Pmmm'
_cell_length_a   4.62966753
_cell_length_b   2.91042355
_cell_length_c   6.02773689
_cell_angle_alpha   90.42368202
_cell_angle_beta   90.00000000
_cell_angle_gamma   90.00000000
_chemical_formula_structural   KP3
_chemical_formula_sum   'K1 P3'
_cell_volume   81.21727484
loop_
 _symmetry_equiv_pos_site_id
 _symmetry_equiv_pos_as_xyz
  1  'x, y, z'
loop_
 _atom_type_symbol
  K
  P
loop_
 _atom_site_type_symbol
 _atom_site_label
 _atom_site_symmetry_multiplicity
 _atom_site_fract_x
 _atom_site_fract_y
 _atom_site_fract_z
 _atom_site_occupancy
  K  K0  1  0.00000000  0.00000000  0.00000000  1
  P  P0  1  0.50000000  0.50553858  0.67667533  1
  P  P1  1  0.00000000  0.50000000  0.50000000  1
  P  P2  1  0.50000000  0.49446142  0.32332467  1
