# generated using pymatgen
data_3373_MoTa3
_symmetry_space_group_name_H-M   'Immm'
_cell_length_a   4.65240985
_cell_length_b   5.44537572
_cell_length_c   3.25238519
_cell_angle_alpha   72.62422214
_cell_angle_beta   90.00000000
_cell_angle_gamma   115.28930247
_chemical_formula_structural   MoTa3
_chemical_formula_sum   'Mo1 Ta3'
_cell_volume   70.31864153
loop_
 _symmetry_equiv_pos_site_id
 _symmetry_equiv_pos_as_xyz
  1  'x, y, z'
loop_
 _atom_type_symbol
  Mo
  Ta
loop_
 _atom_site_type_symbol
 _atom_site_label
 _atom_site_symmetry_multiplicity
 _atom_site_fract_x
 _atom_site_fract_y
 _atom_site_fract_z
 _atom_site_occupancy
  Mo  Mo0  1  0.91547267  0.00000000  0.00000000  1
  Ta  Ta0  1  0.15766571  0.47956248  0.26021876  1
  Ta  Ta1  1  0.41542506  0.00000000  0.50000000  1
  Ta  Ta2  1  0.67810323  0.52043752  0.73978124  1
