# generated using pymatgen
data_3382_Pd5Rb4
_symmetry_space_group_name_H-M   'I4/mmm'
_cell_length_a   11.48665768
_cell_length_b   11.48665768
_cell_length_c   8.43448415
_cell_angle_alpha   47.08331093
_cell_angle_beta   47.08331093
_cell_angle_gamma   90.00000000
_chemical_formula_structural   Pd5Rb4
_chemical_formula_sum   'Pd5 Rb4'
_cell_volume   299.97508493
loop_
 _symmetry_equiv_pos_site_id
 _symmetry_equiv_pos_as_xyz
  1  'x, y, z'
loop_
 _atom_type_symbol
  Pd
  Rb
loop_
 _atom_site_type_symbol
 _atom_site_label
 _atom_site_symmetry_multiplicity
 _atom_site_fract_x
 _atom_site_fract_y
 _atom_site_fract_z
 _atom_site_occupancy
  Pd  Pd0  1  0.00000000  0.00000000  0.00000000  1
  Pd  Pd1  1  0.38411417  0.38411417  0.00000000  1
  Pd  Pd2  1  0.38411417  0.61588583  0.00000000  1
  Pd  Pd3  1  0.61588583  0.38411417  0.00000000  1
  Pd  Pd4  1  0.61588583  0.61588583  0.00000000  1
  Rb  Rb0  1  0.00000000  0.28484721  0.00000000  1
  Rb  Rb1  1  0.00000000  0.71515279  0.00000000  1
  Rb  Rb2  1  0.28484721  0.00000000  0.00000000  1
  Rb  Rb3  1  0.71515279  0.00000000  0.00000000  1
