# generated using pymatgen
data_338_Nb2V
_symmetry_space_group_name_H-M   'I4/mmm'
_cell_length_a   3.19327257
_cell_length_b   5.35207840
_cell_length_c   3.19327257
_cell_angle_alpha   72.64322598
_cell_angle_beta   90.00000000
_cell_angle_gamma   107.35677402
_chemical_formula_structural   Nb2V
_chemical_formula_sum   'Nb2 V1'
_cell_volume   49.48035894
loop_
 _symmetry_equiv_pos_site_id
 _symmetry_equiv_pos_as_xyz
  1  'x, y, z'
loop_
 _atom_type_symbol
  Nb
  V
loop_
 _atom_site_type_symbol
 _atom_site_label
 _atom_site_symmetry_multiplicity
 _atom_site_fract_x
 _atom_site_fract_y
 _atom_site_fract_z
 _atom_site_occupancy
  Nb  Nb0  1  0.00646781  0.01293563  0.99353219  1
  Nb  Nb1  1  0.32686552  0.65373104  0.67313448  1
  V  V0  1  0.66666667  0.33333333  0.33333333  1
