# generated using pymatgen
data_3394_Cu4Fe6
_symmetry_space_group_name_H-M   'R -3 c'
_cell_length_a   5.76123867
_cell_length_b   5.76123859
_cell_length_c   5.43532367
_cell_angle_alpha   122.00418652
_cell_angle_beta   57.99582252
_cell_angle_gamma   119.99999325
_chemical_formula_structural   Cu4Fe6
_chemical_formula_sum   'Cu4 Fe6'
_cell_volume   123.56603746
loop_
 _symmetry_equiv_pos_site_id
 _symmetry_equiv_pos_as_xyz
  1  'x, y, z'
loop_
 _atom_type_symbol
  Cu
  Fe
loop_
 _atom_site_type_symbol
 _atom_site_label
 _atom_site_symmetry_multiplicity
 _atom_site_fract_x
 _atom_site_fract_y
 _atom_site_fract_z
 _atom_site_occupancy
  Cu  Cu0  1  0.58852927  0.41147073  0.23441219  1
  Cu  Cu1  1  0.91147073  0.08852927  0.26558781  1
  Cu  Cu2  1  0.08852927  0.91147073  0.73441219  1
  Cu  Cu3  1  0.41147073  0.58852927  0.76558781  1
  Fe  Fe0  1  0.25000000  0.98217212  0.25000000  1
  Fe  Fe1  1  0.01782788  0.51782788  0.25000000  1
  Fe  Fe2  1  0.48217212  0.75000000  0.25000000  1
  Fe  Fe3  1  0.51782788  0.25000000  0.75000000  1
  Fe  Fe4  1  0.98217212  0.48217212  0.75000000  1
  Fe  Fe5  1  0.75000000  0.01782788  0.75000000  1
