# generated using pymatgen
data_3397_Ni2Pd
_symmetry_space_group_name_H-M   'I4/mmm'
_cell_length_a   2.66735951
_cell_length_b   5.61305394
_cell_length_c   2.66735951
_cell_angle_alpha   76.25487575
_cell_angle_beta   90.00000000
_cell_angle_gamma   103.74512425
_chemical_formula_structural   Ni2Pd
_chemical_formula_sum   'Ni2 Pd1'
_cell_volume   37.61369697
loop_
 _symmetry_equiv_pos_site_id
 _symmetry_equiv_pos_as_xyz
  1  'x, y, z'
loop_
 _atom_type_symbol
  Ni
  Pd
loop_
 _atom_site_type_symbol
 _atom_site_label
 _atom_site_symmetry_multiplicity
 _atom_site_fract_x
 _atom_site_fract_y
 _atom_site_fract_z
 _atom_site_occupancy
  Ni  Ni0  1  0.32421118  0.64842236  0.67578882  1
  Ni  Ni1  1  0.67578882  0.35157764  0.32421118  1
  Pd  Pd0  1  0.00000000  0.00000000  0.00000000  1
