# generated using pymatgen
data_3398_Ag6Pt3
_symmetry_space_group_name_H-M   'P-1'
_cell_length_a   5.02778137
_cell_length_b   4.91896923
_cell_length_c   6.50434130
_cell_angle_alpha   75.09950514
_cell_angle_beta   82.23734572
_cell_angle_gamma   80.32086900
_chemical_formula_structural   Ag6Pt3
_chemical_formula_sum   'Ag6 Pt3'
_cell_volume   152.52629358
loop_
 _symmetry_equiv_pos_site_id
 _symmetry_equiv_pos_as_xyz
  1  'x, y, z'
loop_
 _atom_type_symbol
  Ag
  Pt
loop_
 _atom_site_type_symbol
 _atom_site_label
 _atom_site_symmetry_multiplicity
 _atom_site_fract_x
 _atom_site_fract_y
 _atom_site_fract_z
 _atom_site_occupancy
  Ag  Ag0  1  0.99798384  0.99376405  0.00621461  1
  Ag  Ag1  1  0.45063797  0.22193601  0.10474826  1
  Ag  Ag2  1  0.88269536  0.44473066  0.22858507  1
  Ag  Ag3  1  0.33534950  0.67290262  0.32711873  1
  Ag  Ag4  1  0.22161573  0.11448636  0.55396353  1
  Ag  Ag5  1  0.11171761  0.55218031  0.77936981  1
  Pt  Pt0  1  0.77396127  0.88660876  0.45856178  1
  Pt  Pt1  1  0.66666667  0.33333333  0.66666667  1
  Pt  Pt2  1  0.55937206  0.78005790  0.87477155  1
