# generated using pymatgen
data_339_Na2Pt
_symmetry_space_group_name_H-M   'I4/mmm'
_cell_length_a   5.30477992
_cell_length_b   5.30477992
_cell_length_c   5.30477992
_cell_angle_alpha   139.17576527
_cell_angle_beta   139.17576527
_cell_angle_gamma   59.10694673
_chemical_formula_structural   Na2Pt
_chemical_formula_sum   'Na2 Pt1'
_cell_volume   63.18415903
loop_
 _symmetry_equiv_pos_site_id
 _symmetry_equiv_pos_as_xyz
  1  'x, y, z'
loop_
 _atom_type_symbol
  Na
  Pt
loop_
 _atom_site_type_symbol
 _atom_site_label
 _atom_site_symmetry_multiplicity
 _atom_site_fract_x
 _atom_site_fract_y
 _atom_site_fract_z
 _atom_site_occupancy
  Na  Na0  1  0.34586420  0.34586420  0.00000000  1
  Na  Na1  1  0.65413580  0.65413580  0.00000000  1
  Pt  Pt0  1  0.00000000  0.00000000  0.00000000  1
