# generated using pymatgen
data_33_Ir3K
_symmetry_space_group_name_H-M   'Cmmm'
_cell_length_a   5.16699028
_cell_length_b   5.16699028
_cell_length_c   2.68080098
_cell_angle_alpha   90.00000000
_cell_angle_beta   90.00000000
_cell_angle_gamma   111.65675286
_chemical_formula_structural   Ir3K
_chemical_formula_sum   'Ir3 K1'
_cell_volume   66.51932814
loop_
 _symmetry_equiv_pos_site_id
 _symmetry_equiv_pos_as_xyz
  1  'x, y, z'
loop_
 _atom_type_symbol
  Ir
  K
loop_
 _atom_site_type_symbol
 _atom_site_label
 _atom_site_symmetry_multiplicity
 _atom_site_fract_x
 _atom_site_fract_y
 _atom_site_fract_z
 _atom_site_occupancy
  Ir  Ir0  1  0.00000000  0.50000000  0.50000000  1
  Ir  Ir1  1  0.50000000  1.00000000  0.50000000  1
  Ir  Ir2  1  0.50000000  0.50000000  0.00000000  1
  K  K0  1  0.00000000  0.00000000  0.00000000  1
