# generated using pymatgen
data_3409_Sr4Bi2
_symmetry_space_group_name_H-M   'I4/mmm'
_cell_length_a   5.08407804
_cell_length_b   5.08407804
_cell_length_c   9.69879207
_cell_angle_alpha   105.19461724
_cell_angle_beta   105.19461724
_cell_angle_gamma   90.00000000
_chemical_formula_structural   Sr4Bi2
_chemical_formula_sum   'Bi2 Sr4'
_cell_volume   232.83538957
loop_
 _symmetry_equiv_pos_site_id
 _symmetry_equiv_pos_as_xyz
  1  'x, y, z'
loop_
 _atom_type_symbol
  Bi
  Sr
loop_
 _atom_site_type_symbol
 _atom_site_label
 _atom_site_symmetry_multiplicity
 _atom_site_fract_x
 _atom_site_fract_y
 _atom_site_fract_z
 _atom_site_occupancy
  Bi  Bi0  1  0.13575612  0.13575612  0.27151225  1
  Bi  Bi1  1  0.86424388  0.86424388  0.72848775  1
  Sr  Sr0  1  0.50000000  0.00000000  0.00000000  1
  Sr  Sr1  1  0.00000000  0.50000000  0.00000000  1
  Sr  Sr2  1  0.67678946  0.67678946  0.35357892  1
  Sr  Sr3  1  0.32321054  0.32321054  0.64642108  1
