# generated using pymatgen
data_3411_Cu4As2
_symmetry_space_group_name_H-M   'P4/nmm'
_cell_length_a   3.79324966
_cell_length_b   3.79324966
_cell_length_c   5.95254227
_cell_angle_alpha   90.00000000
_cell_angle_beta   90.00000000
_cell_angle_gamma   90.00000000
_chemical_formula_structural   Cu4As2
_chemical_formula_sum   'As2 Cu4'
_cell_volume   85.64960082
loop_
 _symmetry_equiv_pos_site_id
 _symmetry_equiv_pos_as_xyz
  1  'x, y, z'
loop_
 _atom_type_symbol
  As
  Cu
loop_
 _atom_site_type_symbol
 _atom_site_label
 _atom_site_symmetry_multiplicity
 _atom_site_fract_x
 _atom_site_fract_y
 _atom_site_fract_z
 _atom_site_occupancy
  As  As0  1  0.50000000  0.00000000  0.29064355  1
  As  As1  1  0.00000000  0.50000000  0.70935645  1
  Cu  Cu0  1  0.00000000  0.00000000  0.00000000  1
  Cu  Cu1  1  0.50000000  0.50000000  0.00000000  1
  Cu  Cu2  1  0.00000000  0.50000000  0.30269528  1
  Cu  Cu3  1  0.50000000  0.00000000  0.69730472  1
