# generated using pymatgen
data_3415_Ag3K
_symmetry_space_group_name_H-M   'Immm'
_cell_length_a   6.38155375
_cell_length_b   6.38155375
_cell_length_c   6.38155375
_cell_angle_alpha   152.20850079
_cell_angle_beta   128.86860049
_cell_angle_gamma   59.19040996
_chemical_formula_structural   Ag3K
_chemical_formula_sum   'Ag3 K1'
_cell_volume   93.68010405
loop_
 _symmetry_equiv_pos_site_id
 _symmetry_equiv_pos_as_xyz
  1  'x, y, z'
loop_
 _atom_type_symbol
  Ag
  K
loop_
 _atom_site_type_symbol
 _atom_site_label
 _atom_site_symmetry_multiplicity
 _atom_site_fract_x
 _atom_site_fract_y
 _atom_site_fract_z
 _atom_site_occupancy
  Ag  Ag0  1  0.04543622  0.96539545  0.08004076  1
  Ag  Ag1  1  0.61464531  0.53460455  0.08004076  1
  Ag  Ag2  1  0.83680275  0.25000000  0.58680275  1
  K  K0  1  0.33644906  0.75000000  0.58644906  1
