# generated using pymatgen
data_3417_Ba5Fe
_symmetry_space_group_name_H-M   'Cm'
_cell_length_a   7.91005094
_cell_length_b   7.91005094
_cell_length_c   9.80615108
_cell_angle_alpha   70.54422074
_cell_angle_beta   70.54422074
_cell_angle_gamma   31.37985325
_chemical_formula_structural   Ba5Fe
_chemical_formula_sum   'Ba5 Fe1'
_cell_volume   299.75682817
loop_
 _symmetry_equiv_pos_site_id
 _symmetry_equiv_pos_as_xyz
  1  'x, y, z'
loop_
 _atom_type_symbol
  Ba
  Fe
loop_
 _atom_site_type_symbol
 _atom_site_label
 _atom_site_symmetry_multiplicity
 _atom_site_fract_x
 _atom_site_fract_y
 _atom_site_fract_z
 _atom_site_occupancy
  Ba  Ba0  1  0.94109083  0.94109083  0.00693605  1
  Ba  Ba1  1  0.30664636  0.30664636  0.35145783  1
  Ba  Ba2  1  0.67693504  0.67693504  0.74949297  1
  Ba  Ba3  1  0.65760328  0.65760328  0.14998006  1
  Ba  Ba4  1  0.94111575  0.94111575  0.62913600  1
  Fe  Fe0  1  0.30994208  0.30994208  0.94633042  1
