# generated using pymatgen
data_3419_PdAs3
_symmetry_space_group_name_H-M   'Imm2'
_cell_length_a   5.78466703
_cell_length_b   5.78466703
_cell_length_c   5.78466703
_cell_angle_alpha   143.91388978
_cell_angle_beta   138.37549817
_cell_angle_gamma   56.24472390
_chemical_formula_structural   PdAs3
_chemical_formula_sum   'As3 Pd1'
_cell_volume   75.14924925
loop_
 _symmetry_equiv_pos_site_id
 _symmetry_equiv_pos_as_xyz
  1  'x, y, z'
loop_
 _atom_type_symbol
  As
  Pd
loop_
 _atom_site_type_symbol
 _atom_site_label
 _atom_site_symmetry_multiplicity
 _atom_site_fract_x
 _atom_site_fract_y
 _atom_site_fract_z
 _atom_site_occupancy
  As  As0  1  0.70785819  0.70777245  0.00008574  1
  As  As1  1  0.29231329  0.29222755  0.00008574  1
  As  As2  1  0.15187744  0.50000000  0.65187744  1
  Pd  Pd0  1  0.68128108  1.00000000  0.68128108  1
