# generated using pymatgen
data_3422_BaCa3
_symmetry_space_group_name_H-M   'I4/mmm'
_cell_length_a   6.95654653
_cell_length_b   6.95654653
_cell_length_c   6.95654653
_cell_angle_alpha   131.00322980
_cell_angle_beta   131.00322980
_cell_angle_gamma   71.80794762
_chemical_formula_structural   BaCa3
_chemical_formula_sum   'Ba1 Ca3'
_cell_volume   187.55420673
loop_
 _symmetry_equiv_pos_site_id
 _symmetry_equiv_pos_as_xyz
  1  'x, y, z'
loop_
 _atom_type_symbol
  Ba
  Ca
loop_
 _atom_site_type_symbol
 _atom_site_label
 _atom_site_symmetry_multiplicity
 _atom_site_fract_x
 _atom_site_fract_y
 _atom_site_fract_z
 _atom_site_occupancy
  Ba  Ba0  1  0.00000000  0.00000000  0.00000000  1
  Ca  Ca0  1  0.25000000  0.75000000  0.50000000  1
  Ca  Ca1  1  0.50000000  0.50000000  0.00000000  1
  Ca  Ca2  1  0.75000000  0.25000000  0.50000000  1
