# generated using pymatgen
data_3425_In4Nb2
_symmetry_space_group_name_H-M   'I4_1/amd'
_cell_length_a   14.23937256
_cell_length_b   14.23937256
_cell_length_c   14.23937256
_cell_angle_alpha   167.72947257
_cell_angle_beta   167.72947257
_cell_angle_gamma   17.38663589
_chemical_formula_structural   In4Nb2
_chemical_formula_sum   'In4 Nb2'
_cell_volume   130.39920599
loop_
 _symmetry_equiv_pos_site_id
 _symmetry_equiv_pos_as_xyz
  1  'x, y, z'
loop_
 _atom_type_symbol
  In
  Nb
loop_
 _atom_site_type_symbol
 _atom_site_label
 _atom_site_symmetry_multiplicity
 _atom_site_fract_x
 _atom_site_fract_y
 _atom_site_fract_z
 _atom_site_occupancy
  In  In0  1  0.57640927  0.57640927  0.00000000  1
  In  In1  1  0.67359073  0.17359073  0.50000000  1
  In  In2  1  0.42359073  0.42359073  0.00000000  1
  In  In3  1  0.82640927  0.32640927  0.50000000  1
  Nb  Nb0  1  0.00000000  0.00000000  0.00000000  1
  Nb  Nb1  1  0.25000000  0.75000000  0.50000000  1
