# generated using pymatgen
data_3427_Mo3Nb13
_symmetry_space_group_name_H-M   'Amm2'
_cell_length_a   6.55802274
_cell_length_b   6.55802274
_cell_length_c   6.53917850
_cell_angle_alpha   90.00000000
_cell_angle_beta   90.00000000
_cell_angle_gamma   91.12484808
_chemical_formula_structural   Mo3Nb13
_chemical_formula_sum   'Mo3 Nb13'
_cell_volume   281.18058392
loop_
 _symmetry_equiv_pos_site_id
 _symmetry_equiv_pos_as_xyz
  1  'x, y, z'
loop_
 _atom_type_symbol
  Mo
  Nb
loop_
 _atom_site_type_symbol
 _atom_site_label
 _atom_site_symmetry_multiplicity
 _atom_site_fract_x
 _atom_site_fract_y
 _atom_site_fract_z
 _atom_site_occupancy
  Mo  Mo0  1  0.50066945  0.99933055  0.99854428  1
  Mo  Mo1  1  0.74885795  0.75114205  0.75000000  1
  Mo  Mo2  1  0.50066945  0.99933055  0.50145572  1
  Nb  Nb0  1  0.99686193  0.99676130  0.99767001  1
  Nb  Nb1  1  0.99910344  0.50089656  0.99818073  1
  Nb  Nb2  1  0.50323870  0.50313807  0.99767001  1
  Nb  Nb3  1  0.74468855  0.24379339  0.75000000  1
  Nb  Nb4  1  0.25620661  0.75531145  0.75000000  1
  Nb  Nb5  1  0.25297007  0.24702993  0.75000000  1
  Nb  Nb6  1  0.99686193  0.99676130  0.50232999  1
  Nb  Nb7  1  0.99910344  0.50089656  0.50181927  1
  Nb  Nb8  1  0.50323870  0.50313807  0.50232999  1
  Nb  Nb9  1  0.74688428  0.75311572  0.25000000  1
  Nb  Nb10  1  0.74397851  0.24492026  0.25000000  1
  Nb  Nb11  1  0.25507974  0.75602149  0.25000000  1
  Nb  Nb12  1  0.25158725  0.24841275  0.25000000  1
