# generated using pymatgen
data_3431_RhBr
_symmetry_space_group_name_H-M   'P-6m2'
_cell_length_a   3.35003300
_cell_length_b   3.35005081
_cell_length_c   3.78192200
_cell_angle_alpha   90.00000000
_cell_angle_beta   90.00000000
_cell_angle_gamma   119.99954184
_chemical_formula_structural   RhBr
_chemical_formula_sum   'Br1 Rh1'
_cell_volume   36.75747609
loop_
 _symmetry_equiv_pos_site_id
 _symmetry_equiv_pos_as_xyz
  1  'x, y, z'
loop_
 _atom_type_symbol
  Br
  Rh
loop_
 _atom_site_type_symbol
 _atom_site_label
 _atom_site_symmetry_multiplicity
 _atom_site_fract_x
 _atom_site_fract_y
 _atom_site_fract_z
 _atom_site_occupancy
  Br  Br0  1  0.66666917  0.33333162  0.74999964  1
  Rh  Rh0  1  0.33333174  0.66666623  0.24999987  1
