# generated using pymatgen
data_3432_Ba4Br8
_symmetry_space_group_name_H-M   'Pnma'
_cell_length_a   16.49441363
_cell_length_b   10.01727441
_cell_length_c   5.03443400
_cell_angle_alpha   90.00000000
_cell_angle_beta   90.00000000
_cell_angle_gamma   89.92911381
_chemical_formula_structural   Ba4Br8
_chemical_formula_sum   'Ba8 Br16'
_cell_volume   831.83419841
loop_
 _symmetry_equiv_pos_site_id
 _symmetry_equiv_pos_as_xyz
  1  'x, y, z'
loop_
 _atom_type_symbol
  Ba
  Br
loop_
 _atom_site_type_symbol
 _atom_site_label
 _atom_site_symmetry_multiplicity
 _atom_site_fract_x
 _atom_site_fract_y
 _atom_site_fract_z
 _atom_site_occupancy
  Ba  Ba0  1  0.12695231  0.11419890  0.24958715  1
  Ba  Ba1  1  0.37700275  0.38590504  0.24989901  1
  Ba  Ba2  1  0.87700244  0.38590435  0.25009963  1
  Ba  Ba3  1  0.62695259  0.11419923  0.25041346  1
  Ba  Ba4  1  0.37304751  0.88580143  0.74958777  1
  Ba  Ba5  1  0.12299767  0.61409531  0.74990161  1
  Ba  Ba6  1  0.62299736  0.61409462  0.75009826  1
  Ba  Ba7  1  0.87304719  0.88580174  0.75041210  1
  Br  Br0  1  0.23746285  0.83056363  0.24960503  1
  Br  Br1  1  0.42797047  0.07245381  0.24972222  1
  Br  Br2  1  0.17802313  0.42761783  0.24987914  1
  Br  Br3  1  0.98729587  0.66961168  0.24990894  1
  Br  Br4  1  0.48729620  0.66961138  0.25009168  1
  Br  Br5  1  0.67802341  0.42761816  0.25012147  1
  Br  Br6  1  0.92797075  0.07245413  0.25027442  1
  Br  Br7  1  0.73746312  0.83056495  0.25039559  1
  Br  Br8  1  0.26253699  0.16943471  0.74960565  1
  Br  Br9  1  0.07202936  0.92754553  0.74972483  1
  Br  Br10  1  0.32197670  0.57238150  0.74987778  1
  Br  Br11  1  0.51270391  0.33038828  0.74990956  1
  Br  Br12  1  0.01270302  0.33038894  0.75008833  1
  Br  Br13  1  0.82197637  0.57238181  0.75012408  1
  Br  Br14  1  0.57202964  0.92754585  0.75027504  1
  Br  Br15  1  0.76253726  0.16943603  0.75039422  1
