# generated using pymatgen
data_3434_Al4Np2
_symmetry_space_group_name_H-M   'P4_2/mnm'
_cell_length_a   5.74280282
_cell_length_b   5.74280282
_cell_length_c   4.75359898
_cell_angle_alpha   90.00000000
_cell_angle_beta   90.00000000
_cell_angle_gamma   90.00000000
_chemical_formula_structural   Al4Np2
_chemical_formula_sum   'Al4 Np2'
_cell_volume   156.77266867
loop_
 _symmetry_equiv_pos_site_id
 _symmetry_equiv_pos_as_xyz
  1  'x, y, z'
loop_
 _atom_type_symbol
  Al
  Np
loop_
 _atom_site_type_symbol
 _atom_site_label
 _atom_site_symmetry_multiplicity
 _atom_site_fract_x
 _atom_site_fract_y
 _atom_site_fract_z
 _atom_site_occupancy
  Al  Al0  1  0.33609197  0.33609197  0.00000000  1
  Al  Al1  1  0.66390803  0.66390803  0.00000000  1
  Al  Al2  1  0.83609197  0.16390803  0.50000000  1
  Al  Al3  1  0.16390803  0.83609197  0.50000000  1
  Np  Np0  1  0.00000000  0.00000000  0.00000000  1
  Np  Np1  1  0.50000000  0.50000000  0.50000000  1
