# generated using pymatgen
data_3439_Pb2Sr2
_symmetry_space_group_name_H-M   'Cmcm'
_cell_length_a   6.71069678
_cell_length_b   6.71069678
_cell_length_c   4.72384180
_cell_angle_alpha   90.00000000
_cell_angle_beta   90.00000000
_cell_angle_gamma   135.56063039
_chemical_formula_structural   Pb2Sr2
_chemical_formula_sum   'Pb2 Sr2'
_cell_volume   148.94441366
loop_
 _symmetry_equiv_pos_site_id
 _symmetry_equiv_pos_as_xyz
  1  'x, y, z'
loop_
 _atom_type_symbol
  Pb
  Sr
loop_
 _atom_site_type_symbol
 _atom_site_label
 _atom_site_symmetry_multiplicity
 _atom_site_fract_x
 _atom_site_fract_y
 _atom_site_fract_z
 _atom_site_occupancy
  Pb  Pb0  1  0.41507164  0.58492836  0.75000000  1
  Pb  Pb1  1  0.58492836  0.41507164  0.25000000  1
  Sr  Sr0  1  0.13363517  0.86636483  0.75000000  1
  Sr  Sr1  1  0.86636483  0.13363517  0.25000000  1
