# generated using pymatgen
data_3440_Ba2Ir2
_symmetry_space_group_name_H-M   'Pmma'
_cell_length_a   4.58870863
_cell_length_b   4.56965849
_cell_length_c   7.20711062
_cell_angle_alpha   90.00000000
_cell_angle_beta   90.00000000
_cell_angle_gamma   90.00000000
_chemical_formula_structural   Ba2Ir2
_chemical_formula_sum   'Ba2 Ir2'
_cell_volume   151.12468711
loop_
 _symmetry_equiv_pos_site_id
 _symmetry_equiv_pos_as_xyz
  1  'x, y, z'
loop_
 _atom_type_symbol
  Ba
  Ir
loop_
 _atom_site_type_symbol
 _atom_site_label
 _atom_site_symmetry_multiplicity
 _atom_site_fract_x
 _atom_site_fract_y
 _atom_site_fract_z
 _atom_site_occupancy
  Ba  Ba0  1  0.00000000  0.00000000  0.90599824  1
  Ba  Ba1  1  0.00000000  0.50000000  0.42733510  1
  Ir  Ir0  1  0.50000000  0.00000000  0.61105864  1
  Ir  Ir1  1  0.50000000  0.50000000  0.72227470  1
