# generated using pymatgen
data_3441_AlSb2
_symmetry_space_group_name_H-M   'I4/mmm'
_cell_length_a   6.21755890
_cell_length_b   6.21755890
_cell_length_c   6.21755890
_cell_angle_alpha   145.39545966
_cell_angle_beta   145.39545966
_cell_angle_gamma   49.74558906
_chemical_formula_structural   AlSb2
_chemical_formula_sum   'Al1 Sb2'
_cell_volume   77.15476766
loop_
 _symmetry_equiv_pos_site_id
 _symmetry_equiv_pos_as_xyz
  1  'x, y, z'
loop_
 _atom_type_symbol
  Al
  Sb
loop_
 _atom_site_type_symbol
 _atom_site_label
 _atom_site_symmetry_multiplicity
 _atom_site_fract_x
 _atom_site_fract_y
 _atom_site_fract_z
 _atom_site_occupancy
  Al  Al0  1  0.00000000  0.00000000  0.00000000  1
  Sb  Sb0  1  0.62991706  0.62991706  0.00000000  1
  Sb  Sb1  1  0.37008294  0.37008294  0.00000000  1
