# generated using pymatgen
data_3442_Ir3P
_symmetry_space_group_name_H-M   'Pm -3 m'
_cell_length_a   3.83468506
_cell_length_b   3.83468506
_cell_length_c   3.83468506
_cell_angle_alpha   90.00000000
_cell_angle_beta   90.00000000
_cell_angle_gamma   90.00000000
_chemical_formula_structural   Ir3P
_chemical_formula_sum   'Ir3 P1'
_cell_volume   56.38831334
loop_
 _symmetry_equiv_pos_site_id
 _symmetry_equiv_pos_as_xyz
  1  'x, y, z'
loop_
 _atom_type_symbol
  Ir
  P
loop_
 _atom_site_type_symbol
 _atom_site_label
 _atom_site_symmetry_multiplicity
 _atom_site_fract_x
 _atom_site_fract_y
 _atom_site_fract_z
 _atom_site_occupancy
  Ir  Ir0  1  0.50000000  0.50000000  0.00000000  1
  Ir  Ir1  1  0.50000000  0.00000000  0.50000000  1
  Ir  Ir2  1  0.00000000  0.50000000  0.50000000  1
  P  P0  1  0.00000000  0.00000000  0.00000000  1
