# generated using pymatgen
data_3444_Pt3Rh
_symmetry_space_group_name_H-M   'P4/mmm'
_cell_length_a   2.78507243
_cell_length_b   2.78507243
_cell_length_c   7.89407887
_cell_angle_alpha   90.00000000
_cell_angle_beta   90.00000000
_cell_angle_gamma   90.00000000
_chemical_formula_structural   Pt3Rh
_chemical_formula_sum   'Pt3 Rh1'
_cell_volume   61.23143659
loop_
 _symmetry_equiv_pos_site_id
 _symmetry_equiv_pos_as_xyz
  1  'x, y, z'
loop_
 _atom_type_symbol
  Pt
  Rh
loop_
 _atom_site_type_symbol
 _atom_site_label
 _atom_site_symmetry_multiplicity
 _atom_site_fract_x
 _atom_site_fract_y
 _atom_site_fract_z
 _atom_site_occupancy
  Pt  Pt0  1  0.00000000  0.00000000  0.00687098  1
  Pt  Pt1  1  0.00000000  0.00000000  0.49312902  1
  Pt  Pt2  1  0.50000000  0.50000000  0.75000000  1
  Rh  Rh0  1  0.50000000  0.50000000  0.25000000  1
