# generated using pymatgen
data_3445_Sr2As4
_symmetry_space_group_name_H-M   'Pnnm'
_cell_length_a   5.82458247
_cell_length_b   4.11316408
_cell_length_c   7.47034887
_cell_angle_alpha   90.00000000
_cell_angle_beta   90.00000000
_cell_angle_gamma   90.00000000
_chemical_formula_structural   Sr2As4
_chemical_formula_sum   'As4 Sr2'
_cell_volume   178.97060961
loop_
 _symmetry_equiv_pos_site_id
 _symmetry_equiv_pos_as_xyz
  1  'x, y, z'
loop_
 _atom_type_symbol
  As
  Sr
loop_
 _atom_site_type_symbol
 _atom_site_label
 _atom_site_symmetry_multiplicity
 _atom_site_fract_x
 _atom_site_fract_y
 _atom_site_fract_z
 _atom_site_occupancy
  As  As0  1  0.00000000  0.25142570  0.59878597  1
  As  As1  1  0.00000000  0.74857430  0.40121403  1
  As  As2  1  0.50000000  0.75142570  0.90121403  1
  As  As3  1  0.50000000  0.24857430  0.09878597  1
  Sr  Sr0  1  0.00000000  0.00000000  0.00000000  1
  Sr  Sr1  1  0.50000000  0.50000000  0.50000000  1
