# generated using pymatgen
data_3449_CuSb2
_symmetry_space_group_name_H-M   'I4/mmm'
_cell_length_a   6.61406587
_cell_length_b   6.61406587
_cell_length_c   6.61406587
_cell_angle_alpha   150.54469030
_cell_angle_beta   150.54469030
_cell_angle_gamma   42.14244038
_chemical_formula_structural   CuSb2
_chemical_formula_sum   'Cu1 Sb2'
_cell_volume   69.79839590
loop_
 _symmetry_equiv_pos_site_id
 _symmetry_equiv_pos_as_xyz
  1  'x, y, z'
loop_
 _atom_type_symbol
  Cu
  Sb
loop_
 _atom_site_type_symbol
 _atom_site_label
 _atom_site_symmetry_multiplicity
 _atom_site_fract_x
 _atom_site_fract_y
 _atom_site_fract_z
 _atom_site_occupancy
  Cu  Cu0  1  0.00000000  0.00000000  0.00000000  1
  Sb  Sb0  1  0.62866052  0.62866052  0.00000000  1
  Sb  Sb1  1  0.37133948  0.37133948  0.00000000  1
