# generated using pymatgen
data_344_Nb3W
_symmetry_space_group_name_H-M   'Immm'
_cell_length_a   4.61749718
_cell_length_b   5.43188239
_cell_length_c   3.26086441
_cell_angle_alpha   72.53280443
_cell_angle_beta   90.00000000
_cell_angle_gamma   115.15297741
_chemical_formula_structural   Nb3W
_chemical_formula_sum   'Nb3 W1'
_cell_volume   69.84372344
loop_
 _symmetry_equiv_pos_site_id
 _symmetry_equiv_pos_as_xyz
  1  'x, y, z'
loop_
 _atom_type_symbol
  Nb
  W
loop_
 _atom_site_type_symbol
 _atom_site_label
 _atom_site_symmetry_multiplicity
 _atom_site_fract_x
 _atom_site_fract_y
 _atom_site_fract_z
 _atom_site_occupancy
  Nb  Nb0  1  0.99412009  0.98824019  0.00587991  1
  Nb  Nb1  1  0.25000000  0.50000000  0.25000000  1
  Nb  Nb2  1  0.50587991  0.01175981  0.49412009  1
  W  W0  1  0.75000000  0.50000000  0.75000000  1
