# generated using pymatgen
data_3458_AcP
_symmetry_space_group_name_H-M   'Pm -3 m'
_cell_length_a   3.76501643
_cell_length_b   5.32453730
_cell_length_c   3.75968606
_cell_angle_alpha   90.00000000
_cell_angle_beta   90.00000000
_cell_angle_gamma   45.00000000
_chemical_formula_structural   AcP
_chemical_formula_sum   'Ac1 P1'
_cell_volume   53.29486101
loop_
 _symmetry_equiv_pos_site_id
 _symmetry_equiv_pos_as_xyz
  1  'x, y, z'
loop_
 _atom_type_symbol
  Ac
  P
loop_
 _atom_site_type_symbol
 _atom_site_label
 _atom_site_symmetry_multiplicity
 _atom_site_fract_x
 _atom_site_fract_y
 _atom_site_fract_z
 _atom_site_occupancy
  Ac  Ac0  1  0.00000000  0.00000000  0.00000000  1
  P  P0  1  0.00000000  0.50000000  0.50000000  1
