# generated using pymatgen
data_3462_Mo2W
_symmetry_space_group_name_H-M   'I4/mmm'
_cell_length_a   5.25580136
_cell_length_b   5.25580136
_cell_length_c   5.25580136
_cell_angle_alpha   144.86506081
_cell_angle_beta   144.82748686
_cell_angle_gamma   50.56367701
_chemical_formula_structural   Mo2W
_chemical_formula_sum   'Mo2 W1'
_cell_volume   47.88730892
loop_
 _symmetry_equiv_pos_site_id
 _symmetry_equiv_pos_as_xyz
  1  'x, y, z'
loop_
 _atom_type_symbol
  Mo
  W
loop_
 _atom_site_type_symbol
 _atom_site_label
 _atom_site_symmetry_multiplicity
 _atom_site_fract_x
 _atom_site_fract_y
 _atom_site_fract_z
 _atom_site_occupancy
  Mo  Mo0  1  0.66668499  0.66668499  0.00000000  1
  Mo  Mo1  1  0.33331501  0.33331501  0.00000000  1
  W  W0  1  0.00000000  0.00000000  0.00000000  1
