# generated using pymatgen
data_3466_Ir3Sr
_symmetry_space_group_name_H-M   'Pm -3 m'
_cell_length_a   4.13468110
_cell_length_b   4.13468110
_cell_length_c   4.13468110
_cell_angle_alpha   90.00000000
_cell_angle_beta   90.00000000
_cell_angle_gamma   90.00000000
_chemical_formula_structural   Ir3Sr
_chemical_formula_sum   'Ir3 Sr1'
_cell_volume   70.68480376
loop_
 _symmetry_equiv_pos_site_id
 _symmetry_equiv_pos_as_xyz
  1  'x, y, z'
loop_
 _atom_type_symbol
  Ir
  Sr
loop_
 _atom_site_type_symbol
 _atom_site_label
 _atom_site_symmetry_multiplicity
 _atom_site_fract_x
 _atom_site_fract_y
 _atom_site_fract_z
 _atom_site_occupancy
  Ir  Ir0  1  0.50000025  0.50000025  0.00000000  1
  Ir  Ir1  1  0.50000025  0.00000000  0.50000025  1
  Ir  Ir2  1  0.00000000  0.50000025  0.50000025  1
  Sr  Sr0  1  0.00000000  0.00000000  0.00000000  1
