# generated using pymatgen
data_346_Ni4Rh8
_symmetry_space_group_name_H-M   'Pnma'
_cell_length_a   3.77940788
_cell_length_b   7.92006300
_cell_length_c   5.30901288
_cell_angle_alpha   90.00000000
_cell_angle_beta   90.00000000
_cell_angle_gamma   90.00000000
_chemical_formula_structural   Ni4Rh8
_chemical_formula_sum   'Ni4 Rh8'
_cell_volume   158.91547099
loop_
 _symmetry_equiv_pos_site_id
 _symmetry_equiv_pos_as_xyz
  1  'x, y, z'
loop_
 _atom_type_symbol
  Ni
  Rh
loop_
 _atom_site_type_symbol
 _atom_site_label
 _atom_site_symmetry_multiplicity
 _atom_site_fract_x
 _atom_site_fract_y
 _atom_site_fract_z
 _atom_site_occupancy
  Ni  Ni0  1  0.25000000  0.91390620  0.13244182  1
  Ni  Ni1  1  0.75000000  0.41390620  0.36755818  1
  Ni  Ni2  1  0.25000000  0.58609380  0.63244182  1
  Ni  Ni3  1  0.75000000  0.08609380  0.86755818  1
  Rh  Rh0  1  0.25000000  0.24457904  0.10905594  1
  Rh  Rh1  1  0.25000000  0.57914479  0.13806240  1
  Rh  Rh2  1  0.75000000  0.07914479  0.36193760  1
  Rh  Rh3  1  0.75000000  0.74457904  0.39094406  1
  Rh  Rh4  1  0.25000000  0.25542096  0.60905594  1
  Rh  Rh5  1  0.25000000  0.92085521  0.63806240  1
  Rh  Rh6  1  0.75000000  0.42085521  0.86193760  1
  Rh  Rh7  1  0.75000000  0.75542096  0.89094406  1
