# generated using pymatgen
data_3472_Cu2Fe
_symmetry_space_group_name_H-M   'Fmmm'
_cell_length_a   2.46880648
_cell_length_b   6.36641369
_cell_length_c   2.46882718
_cell_angle_alpha   82.35437868
_cell_angle_beta   71.54636713
_cell_angle_gamma   97.61415134
_chemical_formula_structural   Cu2Fe
_chemical_formula_sum   'Cu2 Fe1'
_cell_volume   35.84638978
loop_
 _symmetry_equiv_pos_site_id
 _symmetry_equiv_pos_as_xyz
  1  'x, y, z'
loop_
 _atom_type_symbol
  Cu
  Fe
loop_
 _atom_site_type_symbol
 _atom_site_label
 _atom_site_symmetry_multiplicity
 _atom_site_fract_x
 _atom_site_fract_y
 _atom_site_fract_z
 _atom_site_occupancy
  Cu  Cu0  1  0.99999833  0.99952245  0.99998587  1
  Cu  Cu1  1  0.66666834  0.33381088  0.33334746  1
  Fe  Fe0  1  0.33333333  0.66666667  0.66666667  1
