# generated using pymatgen
data_3476_Sb2P
_symmetry_space_group_name_H-M   'I4/mmm'
_cell_length_a   6.07534708
_cell_length_b   6.07534708
_cell_length_c   6.07534708
_cell_angle_alpha   145.90618900
_cell_angle_beta   145.89575169
_cell_angle_gamma   48.99387902
_chemical_formula_structural   Sb2P
_chemical_formula_sum   'P1 Sb2'
_cell_volume   70.16634291
loop_
 _symmetry_equiv_pos_site_id
 _symmetry_equiv_pos_as_xyz
  1  'x, y, z'
loop_
 _atom_type_symbol
  P
  Sb
loop_
 _atom_site_type_symbol
 _atom_site_label
 _atom_site_symmetry_multiplicity
 _atom_site_fract_x
 _atom_site_fract_y
 _atom_site_fract_z
 _atom_site_occupancy
  P  P0  1  0.00000000  0.00000000  0.00000000  1
  Sb  Sb0  1  0.64017453  0.64017453  1.00000000  1
  Sb  Sb1  1  0.35982547  0.35982547  0.00000000  1
