# generated using pymatgen
data_3477_AlYb3
_symmetry_space_group_name_H-M   'Fm -3 m'
_cell_length_a   5.52900323
_cell_length_b   5.52900323
_cell_length_c   5.52900323
_cell_angle_alpha   119.72870582
_cell_angle_beta   119.72870582
_cell_angle_gamma   90.47054113
_chemical_formula_structural   AlYb3
_chemical_formula_sum   'Al1 Yb3'
_cell_volume   120.00156350
loop_
 _symmetry_equiv_pos_site_id
 _symmetry_equiv_pos_as_xyz
  1  'x, y, z'
loop_
 _atom_type_symbol
  Al
  Yb
loop_
 _atom_site_type_symbol
 _atom_site_label
 _atom_site_symmetry_multiplicity
 _atom_site_fract_x
 _atom_site_fract_y
 _atom_site_fract_z
 _atom_site_occupancy
  Al  Al0  1  0.00000000  0.00000000  0.00000000  1
  Yb  Yb0  1  0.50000012  0.50000012  0.00000000  1
  Yb  Yb1  1  0.74999938  0.24999942  0.49999997  1
  Yb  Yb2  1  0.24999942  0.74999938  0.49999997  1
