# generated using pymatgen
data_3479_Fe8As4
_symmetry_space_group_name_H-M   'Pa -3'
_cell_length_a   5.57358383
_cell_length_b   5.57358383
_cell_length_c   5.57358383
_cell_angle_alpha   90.00000000
_cell_angle_beta   90.00000000
_cell_angle_gamma   90.00000000
_chemical_formula_structural   Fe8As4
_chemical_formula_sum   'As4 Fe8'
_cell_volume   173.14247157
loop_
 _symmetry_equiv_pos_site_id
 _symmetry_equiv_pos_as_xyz
  1  'x, y, z'
loop_
 _atom_type_symbol
  As
  Fe
loop_
 _atom_site_type_symbol
 _atom_site_label
 _atom_site_symmetry_multiplicity
 _atom_site_fract_x
 _atom_site_fract_y
 _atom_site_fract_z
 _atom_site_occupancy
  As  As0  1  0.00000000  0.00000000  0.00000000  1
  As  As1  1  0.50000000  0.50000000  0.00000000  1
  As  As2  1  0.50000000  0.00000000  0.50000000  1
  As  As3  1  0.00000000  0.50000000  0.50000000  1
  Fe  Fe0  1  0.62714962  0.62714962  0.37285038  1
  Fe  Fe1  1  0.37285038  0.37285038  0.62714962  1
  Fe  Fe2  1  0.12714962  0.87285038  0.62714962  1
  Fe  Fe3  1  0.87285038  0.12714962  0.37285038  1
  Fe  Fe4  1  0.37285038  0.12714962  0.12714962  1
  Fe  Fe5  1  0.62714962  0.87285038  0.87285038  1
  Fe  Fe6  1  0.87285038  0.37285038  0.87285038  1
  Fe  Fe7  1  0.12714962  0.62714962  0.12714962  1
