# generated using pymatgen
data_3480_Ba4Sr16
_symmetry_space_group_name_H-M   'I-43m'
_cell_length_a   11.74782372
_cell_length_b   11.74782372
_cell_length_c   11.74782372
_cell_angle_alpha   109.47122063
_cell_angle_beta   109.47122063
_cell_angle_gamma   109.47122063
_chemical_formula_structural   Ba4Sr16
_chemical_formula_sum   'Ba4 Sr16'
_cell_volume   1248.10284543
loop_
 _symmetry_equiv_pos_site_id
 _symmetry_equiv_pos_as_xyz
  1  'x, y, z'
loop_
 _atom_type_symbol
  Ba
  Sr
loop_
 _atom_site_type_symbol
 _atom_site_label
 _atom_site_symmetry_multiplicity
 _atom_site_fract_x
 _atom_site_fract_y
 _atom_site_fract_z
 _atom_site_occupancy
  Ba  Ba0  1  0.41109665  0.41109665  0.41109665  1
  Ba  Ba1  1  0.58890335  0.00000000  0.00000000  1
  Ba  Ba2  1  1.00000000  0.58890335  0.00000000  1
  Ba  Ba3  1  1.00000000  0.00000000  0.58890335  1
  Sr  Sr0  1  0.77944706  0.77944706  0.77944706  1
  Sr  Sr1  1  0.22055294  0.00000000  0.00000000  1
  Sr  Sr2  1  1.00000000  0.22055294  0.00000000  1
  Sr  Sr3  1  1.00000000  0.00000000  0.22055294  1
  Sr  Sr4  1  0.65129093  0.65129093  0.00000000  1
  Sr  Sr5  1  0.34870907  0.34870907  0.00000000  1
  Sr  Sr6  1  0.65129093  0.00000000  0.65129093  1
  Sr  Sr7  1  0.34870907  0.00000000  0.34870907  1
  Sr  Sr8  1  0.00000000  0.65129093  0.65129093  1
  Sr  Sr9  1  0.00000000  0.34870907  0.34870907  1
  Sr  Sr10  1  0.24998838  0.74998838  0.50000000  1
  Sr  Sr11  1  0.75001162  0.25001162  0.50000000  1
  Sr  Sr12  1  0.74998838  0.50000000  0.24998838  1
  Sr  Sr13  1  0.25001162  0.50000000  0.75001162  1
  Sr  Sr14  1  0.50000000  0.24998838  0.74998838  1
  Sr  Sr15  1  0.50000000  0.75001162  0.25001162  1
