# generated using pymatgen
data_3483_MnGe3
_symmetry_space_group_name_H-M   'Immm'
_cell_length_a   5.01459600
_cell_length_b   5.01459600
_cell_length_c   5.01459600
_cell_angle_alpha   138.01569981
_cell_angle_beta   124.97662679
_cell_angle_gamma   71.54435820
_chemical_formula_structural   MnGe3
_chemical_formula_sum   'Ge3 Mn1'
_cell_volume   67.72121334
loop_
 _symmetry_equiv_pos_site_id
 _symmetry_equiv_pos_as_xyz
  1  'x, y, z'
loop_
 _atom_type_symbol
  Ge
  Mn
loop_
 _atom_site_type_symbol
 _atom_site_label
 _atom_site_symmetry_multiplicity
 _atom_site_fract_x
 _atom_site_fract_y
 _atom_site_fract_z
 _atom_site_occupancy
  Ge  Ge0  1  0.99352048  0.99352048  1.00000000  1
  Ge  Ge1  1  0.25000000  0.75000000  0.50000000  1
  Ge  Ge2  1  0.50647952  0.50647952  1.00000000  1
  Mn  Mn0  1  0.75000000  0.25000000  0.50000000  1
