# generated using pymatgen
data_3489_Pb2Sr
_symmetry_space_group_name_H-M   'P4/mmm'
_cell_length_a   4.76230625
_cell_length_b   4.76230625
_cell_length_c   4.91459291
_cell_angle_alpha   90.00000000
_cell_angle_beta   90.00000000
_cell_angle_gamma   90.00000000
_chemical_formula_structural   Pb2Sr
_chemical_formula_sum   'Pb2 Sr1'
_cell_volume   111.46080880
loop_
 _symmetry_equiv_pos_site_id
 _symmetry_equiv_pos_as_xyz
  1  'x, y, z'
loop_
 _atom_type_symbol
  Pb
  Sr
loop_
 _atom_site_type_symbol
 _atom_site_label
 _atom_site_symmetry_multiplicity
 _atom_site_fract_x
 _atom_site_fract_y
 _atom_site_fract_z
 _atom_site_occupancy
  Pb  Pb0  1  0.00000000  0.50000000  0.50000000  1
  Pb  Pb1  1  0.50000000  0.00000000  0.50000000  1
  Sr  Sr0  1  0.00000000  0.00000000  0.00000000  1
