# generated using pymatgen
data_3494_KTa2
_symmetry_space_group_name_H-M   'Fmmm'
_cell_length_a   8.82226081
_cell_length_b   8.82226081
_cell_length_c   4.93424934
_cell_angle_alpha   90.00000000
_cell_angle_beta   90.00000000
_cell_angle_gamma   158.23517083
_chemical_formula_structural   KTa2
_chemical_formula_sum   'K2 Ta4'
_cell_volume   142.40264163
loop_
 _symmetry_equiv_pos_site_id
 _symmetry_equiv_pos_as_xyz
  1  'x, y, z'
loop_
 _atom_type_symbol
  K
  Ta
loop_
 _atom_site_type_symbol
 _atom_site_label
 _atom_site_symmetry_multiplicity
 _atom_site_fract_x
 _atom_site_fract_y
 _atom_site_fract_z
 _atom_site_occupancy
  K  K0  1  0.24888319  0.24888319  0.25000000  1
  K  K1  1  0.75111681  0.75111681  0.75000000  1
  Ta  Ta0  1  0.56110717  0.93858952  0.25000000  1
  Ta  Ta1  1  0.43889283  0.06141048  0.75000000  1
  Ta  Ta2  1  0.93858952  0.56110717  0.25000000  1
  Ta  Ta3  1  0.06141048  0.43889283  0.75000000  1
