# generated using pymatgen
data_3496_V3P
_symmetry_space_group_name_H-M   'Pm -3 m'
_cell_length_a   3.69883577
_cell_length_b   3.68651346
_cell_length_c   3.68838878
_cell_angle_alpha   90.00000000
_cell_angle_beta   90.00000000
_cell_angle_gamma   90.00000000
_chemical_formula_structural   V3P
_chemical_formula_sum   'P1 V3'
_cell_volume   50.29416069
loop_
 _symmetry_equiv_pos_site_id
 _symmetry_equiv_pos_as_xyz
  1  'x, y, z'
loop_
 _atom_type_symbol
  P
  V
loop_
 _atom_site_type_symbol
 _atom_site_label
 _atom_site_symmetry_multiplicity
 _atom_site_fract_x
 _atom_site_fract_y
 _atom_site_fract_z
 _atom_site_occupancy
  P  P0  1  0.00000000  0.00000000  0.91709529  1
  V  V0  1  0.50000000  0.00000000  0.41676981  1
  V  V1  1  0.50000000  0.50000000  0.91635119  1
  V  V2  1  0.00000000  0.50000000  0.41645038  1
