# generated using pymatgen
data_34_Nb4W8
_symmetry_space_group_name_H-M   'Pnma'
_cell_length_a   5.45368656
_cell_length_b   4.58794584
_cell_length_c   8.11812474
_cell_angle_alpha   90.00000000
_cell_angle_beta   90.00000000
_cell_angle_gamma   90.00000000
_chemical_formula_structural   Nb4W8
_chemical_formula_sum   'Nb4 W8'
_cell_volume   203.12537346
loop_
 _symmetry_equiv_pos_site_id
 _symmetry_equiv_pos_as_xyz
  1  'x, y, z'
loop_
 _atom_type_symbol
  Nb
  W
loop_
 _atom_site_type_symbol
 _atom_site_label
 _atom_site_symmetry_multiplicity
 _atom_site_fract_x
 _atom_site_fract_y
 _atom_site_fract_z
 _atom_site_occupancy
  Nb  Nb0  1  0.66953035  0.25000000  0.58196780  1
  Nb  Nb1  1  0.83046965  0.75000000  0.08196780  1
  Nb  Nb2  1  0.16953035  0.25000000  0.91803220  1
  Nb  Nb3  1  0.33046965  0.75000000  0.41803220  1
  W  W0  1  0.01163281  0.25000000  0.25429658  1
  W  W1  1  0.48836719  0.75000000  0.75429658  1
  W  W2  1  0.51163281  0.25000000  0.24570342  1
  W  W3  1  0.98836719  0.75000000  0.74570342  1
  W  W4  1  0.16836455  0.25000000  0.57567318  1
  W  W5  1  0.33163545  0.75000000  0.07567318  1
  W  W6  1  0.66836455  0.25000000  0.92432682  1
  W  W7  1  0.83163545  0.75000000  0.42432682  1
