# generated using pymatgen
data_3502_Ca4Mn4
_symmetry_space_group_name_H-M   'P2_13'
_cell_length_a   5.87858556
_cell_length_b   5.87858556
_cell_length_c   5.87858556
_cell_angle_alpha   90.00000000
_cell_angle_beta   90.00000000
_cell_angle_gamma   90.00000000
_chemical_formula_structural   Ca4Mn4
_chemical_formula_sum   'Ca4 Mn4'
_cell_volume   203.15079705
loop_
 _symmetry_equiv_pos_site_id
 _symmetry_equiv_pos_as_xyz
  1  'x, y, z'
loop_
 _atom_type_symbol
  Ca
  Mn
loop_
 _atom_site_type_symbol
 _atom_site_label
 _atom_site_symmetry_multiplicity
 _atom_site_fract_x
 _atom_site_fract_y
 _atom_site_fract_z
 _atom_site_occupancy
  Ca  Ca0  1  0.59032250  0.59032250  0.40967750  1
  Ca  Ca1  1  0.90967750  0.40967750  0.90967750  1
  Ca  Ca2  1  0.40967750  0.09032250  0.09032250  1
  Ca  Ca3  1  0.09032250  0.90967750  0.59032250  1
  Mn  Mn0  1  0.89675345  0.89675345  0.10324655  1
  Mn  Mn1  1  0.60324655  0.10324655  0.60324655  1
  Mn  Mn2  1  0.10324655  0.39675345  0.39675345  1
  Mn  Mn3  1  0.39675345  0.60324655  0.89675345  1
