# generated using pymatgen
data_3515_MnSb2
_symmetry_space_group_name_H-M   'I4/mmm'
_cell_length_a   6.62048575
_cell_length_b   6.62048575
_cell_length_c   6.62048575
_cell_angle_alpha   151.14540442
_cell_angle_beta   151.14540442
_cell_angle_gamma   41.26262839
_chemical_formula_structural   MnSb2
_chemical_formula_sum   'Mn1 Sb2'
_cell_volume   67.43263752
loop_
 _symmetry_equiv_pos_site_id
 _symmetry_equiv_pos_as_xyz
  1  'x, y, z'
loop_
 _atom_type_symbol
  Mn
  Sb
loop_
 _atom_site_type_symbol
 _atom_site_label
 _atom_site_symmetry_multiplicity
 _atom_site_fract_x
 _atom_site_fract_y
 _atom_site_fract_z
 _atom_site_occupancy
  Mn  Mn0  1  0.00000000  0.00000000  0.00000000  1
  Sb  Sb0  1  0.62953980  0.62953980  0.00000000  1
  Sb  Sb1  1  0.37046020  0.37046020  0.00000000  1
