# generated using pymatgen
data_3517_Al2Pt4
_symmetry_space_group_name_H-M   'I4/mcm'
_cell_length_a   4.93351316
_cell_length_b   4.93351316
_cell_length_c   4.93351316
_cell_angle_alpha   106.94728007
_cell_angle_beta   106.94728007
_cell_angle_gamma   114.64638201
_chemical_formula_structural   Al2Pt4
_chemical_formula_sum   'Al2 Pt4'
_cell_volume   91.86644279
loop_
 _symmetry_equiv_pos_site_id
 _symmetry_equiv_pos_as_xyz
  1  'x, y, z'
loop_
 _atom_type_symbol
  Al
  Pt
loop_
 _atom_site_type_symbol
 _atom_site_label
 _atom_site_symmetry_multiplicity
 _atom_site_fract_x
 _atom_site_fract_y
 _atom_site_fract_z
 _atom_site_occupancy
  Al  Al0  1  0.75000000  0.75000000  0.00000000  1
  Al  Al1  1  0.25000000  0.25000000  0.00000000  1
  Pt  Pt0  1  0.33690519  0.16309481  0.50000000  1
  Pt  Pt1  1  0.66309481  0.83690519  0.50000000  1
  Pt  Pt2  1  0.16309481  0.66309481  0.82618963  1
  Pt  Pt3  1  0.83690519  0.33690519  0.17381037  1
