# generated using pymatgen
data_351_Cr3Rh
_symmetry_space_group_name_H-M   'Pm -3 m'
_cell_length_a   3.64981400
_cell_length_b   3.64981400
_cell_length_c   3.64981400
_cell_angle_alpha   90.00000000
_cell_angle_beta   90.00000000
_cell_angle_gamma   90.00000000
_chemical_formula_structural   Cr3Rh
_chemical_formula_sum   'Cr3 Rh1'
_cell_volume   48.61969142
loop_
 _symmetry_equiv_pos_site_id
 _symmetry_equiv_pos_as_xyz
  1  'x, y, z'
loop_
 _atom_type_symbol
  Cr
  Rh
loop_
 _atom_site_type_symbol
 _atom_site_label
 _atom_site_symmetry_multiplicity
 _atom_site_fract_x
 _atom_site_fract_y
 _atom_site_fract_z
 _atom_site_occupancy
  Cr  Cr0  1  0.50000076  0.50000076  0.00000000  1
  Cr  Cr1  1  0.50000076  0.00000000  0.50000076  1
  Cr  Cr2  1  0.00000000  0.50000076  0.50000076  1
  Rh  Rh0  1  0.00000000  0.00000000  0.00000000  1
