# generated using pymatgen
data_3520_Mn5Nb4
_symmetry_space_group_name_H-M   'I4/mmm'
_cell_length_a   3.10077086
_cell_length_b   6.61411366
_cell_length_c   6.61411366
_cell_angle_alpha   93.14975991
_cell_angle_beta   103.55658886
_cell_angle_gamma   76.44341114
_chemical_formula_structural   Mn5Nb4
_chemical_formula_sum   'Mn5 Nb4'
_cell_volume   128.19456343
loop_
 _symmetry_equiv_pos_site_id
 _symmetry_equiv_pos_as_xyz
  1  'x, y, z'
loop_
 _atom_type_symbol
  Mn
  Nb
loop_
 _atom_site_type_symbol
 _atom_site_label
 _atom_site_symmetry_multiplicity
 _atom_site_fract_x
 _atom_site_fract_y
 _atom_site_fract_z
 _atom_site_occupancy
  Mn  Mn0  1  0.00000000  0.00000000  0.00000000  1
  Mn  Mn1  1  0.33396554  1.00000000  0.66793107  1
  Mn  Mn2  1  0.33396554  0.33206893  0.00000000  1
  Mn  Mn3  1  0.66603446  0.66793107  0.00000000  1
  Mn  Mn4  1  0.66603446  0.00000000  0.33206893  1
  Nb  Nb0  1  0.00000000  0.31392253  0.31392253  1
  Nb  Nb1  1  0.00000000  0.68607747  0.68607747  1
  Nb  Nb2  1  0.31392253  0.68607747  0.31392253  1
  Nb  Nb3  1  0.68607747  0.31392253  0.68607747  1
