# generated using pymatgen
data_3522_Pd3As
_symmetry_space_group_name_H-M   'Immm'
_cell_length_a   5.17379187
_cell_length_b   5.17379187
_cell_length_c   4.42212604
_cell_angle_alpha   64.73265873
_cell_angle_beta   64.73265873
_cell_angle_gamma   36.32830109
_chemical_formula_structural   Pd3As
_chemical_formula_sum   'As1 Pd3'
_cell_volume   62.65076533
loop_
 _symmetry_equiv_pos_site_id
 _symmetry_equiv_pos_as_xyz
  1  'x, y, z'
loop_
 _atom_type_symbol
  As
  Pd
loop_
 _atom_site_type_symbol
 _atom_site_label
 _atom_site_symmetry_multiplicity
 _atom_site_fract_x
 _atom_site_fract_y
 _atom_site_fract_z
 _atom_site_occupancy
  As  As0  1  0.00000000  0.00000000  0.00000000  1
  Pd  Pd0  1  0.50000000  0.50000000  0.50000000  1
  Pd  Pd1  1  0.28154308  0.28154308  0.21843858  1
  Pd  Pd2  1  0.71845692  0.71845692  0.78156142  1
