# generated using pymatgen
data_3523_AlRh4
_symmetry_space_group_name_H-M   'I4/mmm'
_cell_length_a   6.74571885
_cell_length_b   6.74571885
_cell_length_c   6.74571885
_cell_angle_alpha   149.35087475
_cell_angle_beta   149.35087475
_cell_angle_gamma   43.89509089
_chemical_formula_structural   AlRh4
_chemical_formula_sum   'Al1 Rh4'
_cell_volume   79.54649520
loop_
 _symmetry_equiv_pos_site_id
 _symmetry_equiv_pos_as_xyz
  1  'x, y, z'
loop_
 _atom_type_symbol
  Al
  Rh
loop_
 _atom_site_type_symbol
 _atom_site_label
 _atom_site_symmetry_multiplicity
 _atom_site_fract_x
 _atom_site_fract_y
 _atom_site_fract_z
 _atom_site_occupancy
  Al  Al0  1  0.00000000  0.00000000  0.00000000  1
  Rh  Rh0  1  0.25000000  0.75000000  0.50000000  1
  Rh  Rh1  1  0.75000000  0.25000000  0.50000000  1
  Rh  Rh2  1  0.59736559  0.59736559  0.00000000  1
  Rh  Rh3  1  0.40263441  0.40263441  0.00000000  1
