# generated using pymatgen
data_3543_Al4Pt2
_symmetry_space_group_name_H-M   'I4/mcm'
_cell_length_a   5.05429025
_cell_length_b   5.05429025
_cell_length_c   5.05429025
_cell_angle_alpha   106.21079039
_cell_angle_beta   106.21079039
_cell_angle_gamma   116.20959450
_chemical_formula_structural   Al4Pt2
_chemical_formula_sum   'Al4 Pt2'
_cell_volume   98.35084561
loop_
 _symmetry_equiv_pos_site_id
 _symmetry_equiv_pos_as_xyz
  1  'x, y, z'
loop_
 _atom_type_symbol
  Al
  Pt
loop_
 _atom_site_type_symbol
 _atom_site_label
 _atom_site_symmetry_multiplicity
 _atom_site_fract_x
 _atom_site_fract_y
 _atom_site_fract_z
 _atom_site_occupancy
  Al  Al0  1  0.34124476  0.15875524  0.50000000  1
  Al  Al1  1  0.65875524  0.84124476  0.50000000  1
  Al  Al2  1  0.15875524  0.65875524  0.81751048  1
  Al  Al3  1  0.84124476  0.34124476  0.18248952  1
  Pt  Pt0  1  0.75000000  0.75000000  0.00000000  1
  Pt  Pt1  1  0.25000000  0.25000000  0.00000000  1
