# generated using pymatgen
data_3547_Rh4Sr2
_symmetry_space_group_name_H-M   'Cmcm'
_cell_length_a   8.21705897
_cell_length_b   8.21705897
_cell_length_c   3.03000530
_cell_angle_alpha   90.00000000
_cell_angle_beta   90.00000000
_cell_angle_gamma   145.30270646
_chemical_formula_structural   Rh4Sr2
_chemical_formula_sum   'Rh4 Sr2'
_cell_volume   116.45875155
loop_
 _symmetry_equiv_pos_site_id
 _symmetry_equiv_pos_as_xyz
  1  'x, y, z'
loop_
 _atom_type_symbol
  Rh
  Sr
loop_
 _atom_site_type_symbol
 _atom_site_label
 _atom_site_symmetry_multiplicity
 _atom_site_fract_x
 _atom_site_fract_y
 _atom_site_fract_z
 _atom_site_occupancy
  Rh  Rh0  1  0.43046954  0.56953046  0.25000000  1
  Rh  Rh1  1  0.56953046  0.43046954  0.75000000  1
  Rh  Rh2  1  0.72724845  0.27275155  0.25000000  1
  Rh  Rh3  1  0.27275155  0.72724845  0.75000000  1
  Sr  Sr0  1  0.10690675  0.89309325  0.25000000  1
  Sr  Sr1  1  0.89309325  0.10690675  0.75000000  1
