# generated using pymatgen
data_3551_Ag4Sn
_symmetry_space_group_name_H-M   'I4/mmm'
_cell_length_a   7.47833790
_cell_length_b   7.47833790
_cell_length_c   7.47833790
_cell_angle_alpha   149.63691524
_cell_angle_beta   149.63691524
_cell_angle_gamma   43.47463405
_chemical_formula_structural   Ag4Sn
_chemical_formula_sum   'Ag4 Sn1'
_cell_volume   106.57105064
loop_
 _symmetry_equiv_pos_site_id
 _symmetry_equiv_pos_as_xyz
  1  'x, y, z'
loop_
 _atom_type_symbol
  Ag
  Sn
loop_
 _atom_site_type_symbol
 _atom_site_label
 _atom_site_symmetry_multiplicity
 _atom_site_fract_x
 _atom_site_fract_y
 _atom_site_fract_z
 _atom_site_occupancy
  Ag  Ag0  1  0.25000000  0.75000000  0.50000000  1
  Ag  Ag1  1  0.75000000  0.25000000  0.50000000  1
  Ag  Ag2  1  0.59943015  0.59943015  0.00000000  1
  Ag  Ag3  1  0.40056985  0.40056985  0.00000000  1
  Sn  Sn0  1  0.00000000  0.00000000  0.00000000  1
