# generated using pymatgen
data_3556_SrAs
_symmetry_space_group_name_H-M   'Immm'
_cell_length_a   3.64803271
_cell_length_b   5.24858748
_cell_length_c   6.38831668
_cell_angle_alpha   90.00000000
_cell_angle_beta   90.00000000
_cell_angle_gamma   90.00000000
_chemical_formula_structural   SrAs
_chemical_formula_sum   'As2 Sr2'
_cell_volume   122.31721963
loop_
 _symmetry_equiv_pos_site_id
 _symmetry_equiv_pos_as_xyz
  1  'x, y, z'
loop_
 _atom_type_symbol
  As
  Sr
loop_
 _atom_site_type_symbol
 _atom_site_label
 _atom_site_symmetry_multiplicity
 _atom_site_fract_x
 _atom_site_fract_y
 _atom_site_fract_z
 _atom_site_occupancy
  As  As0  1  0.00000000  0.00000000  0.12452005  1
  As  As1  1  0.50000000  0.50000000  0.62547995  1
  Sr  Sr0  1  0.00000000  0.00000000  0.62439603  1
  Sr  Sr1  1  0.50000000  0.50000000  0.12560397  1
