# generated using pymatgen
data_355_Cr3Sr
_symmetry_space_group_name_H-M   'P4/mmm'
_cell_length_a   3.13161364
_cell_length_b   3.13161364
_cell_length_c   7.92143395
_cell_angle_alpha   90.00000000
_cell_angle_beta   90.00000000
_cell_angle_gamma   90.00000000
_chemical_formula_structural   Cr3Sr
_chemical_formula_sum   'Cr3 Sr1'
_cell_volume   77.68553436
loop_
 _symmetry_equiv_pos_site_id
 _symmetry_equiv_pos_as_xyz
  1  'x, y, z'
loop_
 _atom_type_symbol
  Cr
  Sr
loop_
 _atom_site_type_symbol
 _atom_site_label
 _atom_site_symmetry_multiplicity
 _atom_site_fract_x
 _atom_site_fract_y
 _atom_site_fract_z
 _atom_site_occupancy
  Cr  Cr0  1  0.00000000  0.00000000  0.07642555  1
  Cr  Cr1  1  0.50000000  0.50000000  0.25000000  1
  Cr  Cr2  1  0.00000000  0.00000000  0.42357445  1
  Sr  Sr0  1  0.50000000  0.50000000  0.75000000  1
