# generated using pymatgen
data_3560_PdPt3
_symmetry_space_group_name_H-M   'Immm'
_cell_length_a   5.24145218
_cell_length_b   5.24145218
_cell_length_c   5.24145218
_cell_angle_alpha   145.05239434
_cell_angle_beta   129.49544265
_cell_angle_gamma   62.89046462
_chemical_formula_structural   PdPt3
_chemical_formula_sum   'Pd1 Pt3'
_cell_volume   62.94655157
loop_
 _symmetry_equiv_pos_site_id
 _symmetry_equiv_pos_as_xyz
  1  'x, y, z'
loop_
 _atom_type_symbol
  Pd
  Pt
loop_
 _atom_site_type_symbol
 _atom_site_label
 _atom_site_symmetry_multiplicity
 _atom_site_fract_x
 _atom_site_fract_y
 _atom_site_fract_z
 _atom_site_occupancy
  Pd  Pd0  1  0.00000000  0.00000000  0.00000000  1
  Pt  Pt0  1  0.25565923  0.75565923  0.50000000  1
  Pt  Pt1  1  0.50000000  0.50000000  1.00000000  1
  Pt  Pt2  1  0.74434077  0.24434077  0.50000000  1
