# generated using pymatgen
data_356_Ag3Ca
_symmetry_space_group_name_H-M   'P4/mmm'
_cell_length_a   3.63335297
_cell_length_b   3.63335297
_cell_length_c   6.50339332
_cell_angle_alpha   90.00000000
_cell_angle_beta   90.00000000
_cell_angle_gamma   90.00000000
_chemical_formula_structural   Ag3Ca
_chemical_formula_sum   'Ag3 Ca1'
_cell_volume   85.85294581
loop_
 _symmetry_equiv_pos_site_id
 _symmetry_equiv_pos_as_xyz
  1  'x, y, z'
loop_
 _atom_type_symbol
  Ag
  Ca
loop_
 _atom_site_type_symbol
 _atom_site_label
 _atom_site_symmetry_multiplicity
 _atom_site_fract_x
 _atom_site_fract_y
 _atom_site_fract_z
 _atom_site_occupancy
  Ag  Ag0  1  0.50000000  0.50000000  0.72098172  1
  Ag  Ag1  1  0.00000000  0.00000000  0.50000000  1
  Ag  Ag2  1  0.50000000  0.50000000  0.27901828  1
  Ca  Ca0  1  0.00000000  0.00000000  0.00000000  1
