# generated using pymatgen
data_3572_In2Pb2
_symmetry_space_group_name_H-M   'P4/nmm'
_cell_length_a   3.46885188
_cell_length_b   3.46885188
_cell_length_c   9.81130409
_cell_angle_alpha   90.00000000
_cell_angle_beta   90.00000000
_cell_angle_gamma   90.00000000
_chemical_formula_structural   In2Pb2
_chemical_formula_sum   'In2 Pb2'
_cell_volume   118.05876834
loop_
 _symmetry_equiv_pos_site_id
 _symmetry_equiv_pos_as_xyz
  1  'x, y, z'
loop_
 _atom_type_symbol
  In
  Pb
loop_
 _atom_site_type_symbol
 _atom_site_label
 _atom_site_symmetry_multiplicity
 _atom_site_fract_x
 _atom_site_fract_y
 _atom_site_fract_z
 _atom_site_occupancy
  In  In0  1  0.00000000  0.00000000  0.99346067  1
  In  In1  1  0.50000000  0.50000000  0.75653933  1
  Pb  Pb0  1  0.00000000  0.00000000  0.50517194  1
  Pb  Pb1  1  0.50000000  0.50000000  0.24482806  1
