# generated using pymatgen
data_3573_V18Sb6
_symmetry_space_group_name_H-M   'Pmmn'
_cell_length_a   4.89808318
_cell_length_b   5.47731267
_cell_length_c   13.64681538
_cell_angle_alpha   90.00000000
_cell_angle_beta   90.00000000
_cell_angle_gamma   90.00000000
_chemical_formula_structural   V18Sb6
_chemical_formula_sum   'Sb6 V18'
_cell_volume   366.12130823
loop_
 _symmetry_equiv_pos_site_id
 _symmetry_equiv_pos_as_xyz
  1  'x, y, z'
loop_
 _atom_type_symbol
  Sb
  V
loop_
 _atom_site_type_symbol
 _atom_site_label
 _atom_site_symmetry_multiplicity
 _atom_site_fract_x
 _atom_site_fract_y
 _atom_site_fract_z
 _atom_site_occupancy
  Sb  Sb0  1  0.03761796  0.25000000  0.75000000  1
  Sb  Sb1  1  0.65398248  0.25000000  0.41204913  1
  Sb  Sb2  1  0.65398248  0.25000000  0.08795087  1
  Sb  Sb3  1  0.96238204  0.75000000  0.25000000  1
  Sb  Sb4  1  0.34601752  0.75000000  0.91204913  1
  Sb  Sb5  1  0.34601752  0.75000000  0.58795087  1
  V  V0  1  0.14943656  0.99456523  0.42010318  1
  V  V1  1  0.14943656  0.99456523  0.07989682  1
  V  V2  1  0.54089981  0.01382748  0.75000000  1
  V  V3  1  0.45910019  0.98617252  0.25000000  1
  V  V4  1  0.85056344  0.00543477  0.92010318  1
  V  V5  1  0.85056344  0.00543477  0.57989682  1
  V  V6  1  0.01377861  0.25000000  0.25000000  1
  V  V7  1  0.35614462  0.25000000  0.91771597  1
  V  V8  1  0.35614462  0.25000000  0.58228403  1
  V  V9  1  0.14943656  0.50543477  0.42010318  1
  V  V10  1  0.14943656  0.50543477  0.07989682  1
  V  V11  1  0.54089981  0.48617252  0.75000000  1
  V  V12  1  0.45910019  0.51382748  0.25000000  1
  V  V13  1  0.85056344  0.49456523  0.92010318  1
  V  V14  1  0.85056344  0.49456523  0.57989682  1
  V  V15  1  0.98622139  0.75000000  0.75000000  1
  V  V16  1  0.64385538  0.75000000  0.41771597  1
  V  V17  1  0.64385538  0.75000000  0.08228403  1
