# generated using pymatgen
data_3576_NpPa3
_symmetry_space_group_name_H-M   'Pm -3 m'
_cell_length_a   4.60915700
_cell_length_b   4.60915500
_cell_length_c   4.60915900
_cell_angle_alpha   90.00000000
_cell_angle_beta   90.00000000
_cell_angle_gamma   90.00000000
_chemical_formula_structural   NpPa3
_chemical_formula_sum   'Np1 Pa3'
_cell_volume   97.91844427
loop_
 _symmetry_equiv_pos_site_id
 _symmetry_equiv_pos_as_xyz
  1  'x, y, z'
loop_
 _atom_type_symbol
  Np
  Pa
loop_
 _atom_site_type_symbol
 _atom_site_label
 _atom_site_symmetry_multiplicity
 _atom_site_fract_x
 _atom_site_fract_y
 _atom_site_fract_z
 _atom_site_occupancy
  Np  Np0  1  0.00000000  0.00000000  0.00000000  1
  Pa  Pa0  1  0.49999812  0.49999833  0.00000000  1
  Pa  Pa1  1  0.49999812  0.00000000  0.50000013  1
  Pa  Pa2  1  0.00000000  0.49999833  0.50000013  1
