# generated using pymatgen
data_3577_EuMn
_symmetry_space_group_name_H-M   'R -3 m'
_cell_length_a   5.18922810
_cell_length_b   5.18922810
_cell_length_c   5.18922788
_cell_angle_alpha   37.49757795
_cell_angle_beta   37.49757795
_cell_angle_gamma   37.49757923
_chemical_formula_structural   EuMn
_chemical_formula_sum   'Eu1 Mn1'
_cell_volume   46.43660829
loop_
 _symmetry_equiv_pos_site_id
 _symmetry_equiv_pos_as_xyz
  1  'x, y, z'
loop_
 _atom_type_symbol
  Eu
  Mn
loop_
 _atom_site_type_symbol
 _atom_site_label
 _atom_site_symmetry_multiplicity
 _atom_site_fract_x
 _atom_site_fract_y
 _atom_site_fract_z
 _atom_site_occupancy
  Eu  Eu0  1  0.00000000  0.00000000  0.00000000  1
  Mn  Mn0  1  0.50000004  0.50000004  0.50000025  1
