# generated using pymatgen
data_3581_Ba3Sr
_symmetry_space_group_name_H-M   'Immm'
_cell_length_a   8.20755481
_cell_length_b   8.20755481
_cell_length_c   8.20755481
_cell_angle_alpha   144.89667191
_cell_angle_beta   129.50165454
_cell_angle_gamma   62.98544573
_chemical_formula_structural   Ba3Sr
_chemical_formula_sum   'Ba3 Sr1'
_cell_volume   242.58198931
loop_
 _symmetry_equiv_pos_site_id
 _symmetry_equiv_pos_as_xyz
  1  'x, y, z'
loop_
 _atom_type_symbol
  Ba
  Sr
loop_
 _atom_site_type_symbol
 _atom_site_label
 _atom_site_symmetry_multiplicity
 _atom_site_fract_x
 _atom_site_fract_y
 _atom_site_fract_z
 _atom_site_occupancy
  Ba  Ba0  1  0.00028870  0.00028870  1.00000000  1
  Ba  Ba1  1  0.75000000  0.25000000  0.50000000  1
  Ba  Ba2  1  0.49971130  0.49971130  1.00000000  1
  Sr  Sr0  1  0.25000000  0.75000000  0.50000000  1
