# generated using pymatgen
data_3585_Pt6As2
_symmetry_space_group_name_H-M   'I4/mmm'
_cell_length_a   8.93511492
_cell_length_b   8.93511492
_cell_length_c   8.93511492
_cell_angle_alpha   154.69838266
_cell_angle_beta   154.69838266
_cell_angle_gamma   36.08530503
_chemical_formula_structural   Pt6As2
_chemical_formula_sum   'As2 Pt6'
_cell_volume   130.13191314
loop_
 _symmetry_equiv_pos_site_id
 _symmetry_equiv_pos_as_xyz
  1  'x, y, z'
loop_
 _atom_type_symbol
  As
  Pt
loop_
 _atom_site_type_symbol
 _atom_site_label
 _atom_site_symmetry_multiplicity
 _atom_site_fract_x
 _atom_site_fract_y
 _atom_site_fract_z
 _atom_site_occupancy
  As  As0  1  0.64382706  0.64382706  0.00000000  1
  As  As1  1  0.35617294  0.35617294  0.00000000  1
  Pt  Pt0  1  0.50000000  0.00000000  0.50000000  1
  Pt  Pt1  1  0.00000000  0.50000000  0.50000000  1
  Pt  Pt2  1  0.25000000  0.75000000  0.50000000  1
  Pt  Pt3  1  0.75000000  0.25000000  0.50000000  1
  Pt  Pt4  1  0.88438724  0.88438724  0.00000000  1
  Pt  Pt5  1  0.11561276  0.11561276  0.00000000  1
