# generated using pymatgen
data_3586_FeGa
_symmetry_space_group_name_H-M   'R -3 m'
_cell_length_a   4.39133358
_cell_length_b   4.39133358
_cell_length_c   4.39133348
_cell_angle_alpha   36.15508712
_cell_angle_beta   36.15508712
_cell_angle_gamma   36.15509344
_chemical_formula_structural   FeGa
_chemical_formula_sum   'Fe1 Ga1'
_cell_volume   26.37040150
loop_
 _symmetry_equiv_pos_site_id
 _symmetry_equiv_pos_as_xyz
  1  'x, y, z'
loop_
 _atom_type_symbol
  Fe
  Ga
loop_
 _atom_site_type_symbol
 _atom_site_label
 _atom_site_symmetry_multiplicity
 _atom_site_fract_x
 _atom_site_fract_y
 _atom_site_fract_z
 _atom_site_occupancy
  Fe  Fe0  1  0.00000000  0.00000000  0.00000000  1
  Ga  Ga0  1  0.49999955  0.49999955  0.49999955  1
