# generated using pymatgen
data_358_SbGe
_symmetry_space_group_name_H-M   'Cmmm'
_cell_length_a   3.13391137
_cell_length_b   3.13391137
_cell_length_c   5.10538023
_cell_angle_alpha   90.00000000
_cell_angle_beta   90.00000000
_cell_angle_gamma   109.41111014
_chemical_formula_structural   SbGe
_chemical_formula_sum   'Ge1 Sb1'
_cell_volume   47.29182474
loop_
 _symmetry_equiv_pos_site_id
 _symmetry_equiv_pos_as_xyz
  1  'x, y, z'
loop_
 _atom_type_symbol
  Ge
  Sb
loop_
 _atom_site_type_symbol
 _atom_site_label
 _atom_site_symmetry_multiplicity
 _atom_site_fract_x
 _atom_site_fract_y
 _atom_site_fract_z
 _atom_site_occupancy
  Ge  Ge0  1  0.00000000  0.00000000  0.00000000  1
  Sb  Sb0  1  0.50000000  0.50000000  0.50000000  1
