# generated using pymatgen
data_3591_NaBr5
_symmetry_space_group_name_H-M   'Cmmm'
_cell_length_a   12.45560551
_cell_length_b   12.45560551
_cell_length_c   4.02698480
_cell_angle_alpha   90.00000000
_cell_angle_beta   90.00000000
_cell_angle_gamma   161.15063582
_chemical_formula_structural   NaBr5
_chemical_formula_sum   'Br5 Na1'
_cell_volume   201.84655327
loop_
 _symmetry_equiv_pos_site_id
 _symmetry_equiv_pos_as_xyz
  1  'x, y, z'
loop_
 _atom_type_symbol
  Br
  Na
loop_
 _atom_site_type_symbol
 _atom_site_label
 _atom_site_symmetry_multiplicity
 _atom_site_fract_x
 _atom_site_fract_y
 _atom_site_fract_z
 _atom_site_occupancy
  Br  Br0  1  0.19292082  0.80707918  0.50000000  1
  Br  Br1  1  0.36257967  0.63742033  0.00000000  1
  Br  Br2  1  0.52775268  0.47224732  0.50000000  1
  Br  Br3  1  0.69296323  0.30703677  0.00000000  1
  Br  Br4  1  0.86262701  0.13737299  0.50000000  1
  Na  Na0  1  0.02782325  0.97217675  0.00000000  1
