# generated using pymatgen
data_3597_Au26Ta2
_symmetry_space_group_name_H-M   'Fm -3 c'
_cell_length_a   9.28957998
_cell_length_b   9.28957998
_cell_length_c   9.28957998
_cell_angle_alpha   60.00000000
_cell_angle_beta   60.00000000
_cell_angle_gamma   60.00000000
_chemical_formula_structural   Au26Ta2
_chemical_formula_sum   'Au26 Ta2'
_cell_volume   566.85663859
loop_
 _symmetry_equiv_pos_site_id
 _symmetry_equiv_pos_as_xyz
  1  'x, y, z'
loop_
 _atom_type_symbol
  Au
  Ta
loop_
 _atom_site_type_symbol
 _atom_site_label
 _atom_site_symmetry_multiplicity
 _atom_site_fract_x
 _atom_site_fract_y
 _atom_site_fract_z
 _atom_site_occupancy
  Au  Au0  1  0.30209307  0.69790693  0.06097245  1
  Au  Au1  1  0.06097245  0.93902755  0.30209307  1
  Au  Au2  1  0.93902755  0.06097245  0.69790693  1
  Au  Au3  1  0.69790693  0.30209307  0.93902755  1
  Au  Au4  1  0.93902755  0.69790693  0.30209307  1
  Au  Au5  1  0.69790693  0.93902755  0.06097245  1
  Au  Au6  1  0.30209307  0.06097245  0.93902755  1
  Au  Au7  1  0.06097245  0.30209307  0.69790693  1
  Au  Au8  1  0.06097245  0.69790693  0.93902755  1
  Au  Au9  1  0.30209307  0.93902755  0.69790693  1
  Au  Au10  1  0.69790693  0.06097245  0.30209307  1
  Au  Au11  1  0.93902755  0.30209307  0.06097245  1
  Au  Au12  1  0.19790693  0.56097245  0.43902755  1
  Au  Au13  1  0.43902755  0.80209307  0.19790693  1
  Au  Au14  1  0.56097245  0.19790693  0.80209307  1
  Au  Au15  1  0.80209307  0.43902755  0.56097245  1
  Au  Au16  1  0.56097245  0.43902755  0.19790693  1
  Au  Au17  1  0.80209307  0.19790693  0.43902755  1
  Au  Au18  1  0.19790693  0.80209307  0.56097245  1
  Au  Au19  1  0.43902755  0.56097245  0.80209307  1
  Au  Au20  1  0.43902755  0.19790693  0.56097245  1
  Au  Au21  1  0.19790693  0.43902755  0.80209307  1
  Au  Au22  1  0.80209307  0.56097245  0.19790693  1
  Au  Au23  1  0.56097245  0.80209307  0.43902755  1
  Au  Au24  1  0.00000000  0.00000000  0.00000000  1
  Au  Au25  1  0.50000000  0.50000000  0.50000000  1
  Ta  Ta0  1  0.25000000  0.25000000  0.25000000  1
  Ta  Ta1  1  0.75000000  0.75000000  0.75000000  1
