# generated using pymatgen
data_3604_Al3Pt
_symmetry_space_group_name_H-M   'P4/mmm'
_cell_length_a   2.84413736
_cell_length_b   2.84413736
_cell_length_c   7.76475859
_cell_angle_alpha   90.00000000
_cell_angle_beta   90.00000000
_cell_angle_gamma   90.59638131
_chemical_formula_structural   Al3Pt
_chemical_formula_sum   'Al3 Pt1'
_cell_volume   62.80664055
loop_
 _symmetry_equiv_pos_site_id
 _symmetry_equiv_pos_as_xyz
  1  'x, y, z'
loop_
 _atom_type_symbol
  Al
  Pt
loop_
 _atom_site_type_symbol
 _atom_site_label
 _atom_site_symmetry_multiplicity
 _atom_site_fract_x
 _atom_site_fract_y
 _atom_site_fract_z
 _atom_site_occupancy
  Al  Al0  1  0.00000000  0.00000000  0.01967735  1
  Al  Al1  1  0.50000000  0.50000000  0.75000000  1
  Al  Al2  1  0.00000000  0.00000000  0.48032265  1
  Pt  Pt0  1  0.50000000  0.50000000  0.25000000  1
