# generated using pymatgen
data_3608_AlK3
_symmetry_space_group_name_H-M   'Fm -3 m'
_cell_length_a   6.38504413
_cell_length_b   6.38504413
_cell_length_c   6.38504413
_cell_angle_alpha   60.00000000
_cell_angle_beta   60.00000000
_cell_angle_gamma   60.00000000
_chemical_formula_structural   AlK3
_chemical_formula_sum   'Al1 K3'
_cell_volume   184.06732934
loop_
 _symmetry_equiv_pos_site_id
 _symmetry_equiv_pos_as_xyz
  1  'x, y, z'
loop_
 _atom_type_symbol
  Al
  K
loop_
 _atom_site_type_symbol
 _atom_site_label
 _atom_site_symmetry_multiplicity
 _atom_site_fract_x
 _atom_site_fract_y
 _atom_site_fract_z
 _atom_site_occupancy
  Al  Al0  1  0.74999978  0.74999978  0.74999978  1
  K  K0  1  0.00000000  0.00000000  0.00000000  1
  K  K1  1  0.24999956  0.24999956  0.24999956  1
  K  K2  1  0.50000022  0.50000022  0.50000022  1
