# generated using pymatgen
data_3609_Fe4Pd8
_symmetry_space_group_name_H-M   'Pnma'
_cell_length_a   5.41778074
_cell_length_b   4.02635641
_cell_length_c   8.03049047
_cell_angle_alpha   90.00000000
_cell_angle_beta   90.00000000
_cell_angle_gamma   90.00000000
_chemical_formula_structural   Fe4Pd8
_chemical_formula_sum   'Fe4 Pd8'
_cell_volume   175.17644624
loop_
 _symmetry_equiv_pos_site_id
 _symmetry_equiv_pos_as_xyz
  1  'x, y, z'
loop_
 _atom_type_symbol
  Fe
  Pd
loop_
 _atom_site_type_symbol
 _atom_site_label
 _atom_site_symmetry_multiplicity
 _atom_site_fract_x
 _atom_site_fract_y
 _atom_site_fract_z
 _atom_site_occupancy
  Fe  Fe0  1  0.66006190  0.25000000  0.59657422  1
  Fe  Fe1  1  0.83993810  0.75000000  0.09657422  1
  Fe  Fe2  1  0.16006190  0.25000000  0.90342578  1
  Fe  Fe3  1  0.33993810  0.75000000  0.40342578  1
  Pd  Pd0  1  0.08017003  0.25000000  0.23000517  1
  Pd  Pd1  1  0.41982997  0.75000000  0.73000517  1
  Pd  Pd2  1  0.58017003  0.25000000  0.26999483  1
  Pd  Pd3  1  0.91982997  0.75000000  0.76999483  1
  Pd  Pd4  1  0.15451589  0.25000000  0.57450850  1
  Pd  Pd5  1  0.34548411  0.75000000  0.07450850  1
  Pd  Pd6  1  0.65451589  0.25000000  0.92549150  1
  Pd  Pd7  1  0.84548411  0.75000000  0.42549150  1
