# generated using pymatgen
data_3613_Au4V2
_symmetry_space_group_name_H-M   'Cmcm'
_cell_length_a   4.75986711
_cell_length_b   4.80916094
_cell_length_c   4.93052936
_cell_angle_alpha   119.18900590
_cell_angle_beta   90.00000000
_cell_angle_gamma   90.00000000
_chemical_formula_structural   Au4V2
_chemical_formula_sum   'Au4 V2'
_cell_volume   98.53255151
loop_
 _symmetry_equiv_pos_site_id
 _symmetry_equiv_pos_as_xyz
  1  'x, y, z'
loop_
 _atom_type_symbol
  Au
  V
loop_
 _atom_site_type_symbol
 _atom_site_label
 _atom_site_symmetry_multiplicity
 _atom_site_fract_x
 _atom_site_fract_y
 _atom_site_fract_z
 _atom_site_occupancy
  Au  Au0  1  0.50000000  0.16107565  0.32325160  1
  Au  Au1  1  0.00000000  0.60217595  0.32325160  1
  Au  Au2  1  0.00000000  0.27892435  0.67674840  1
  Au  Au3  1  0.50000000  0.83782405  0.67674840  1
  V  V0  1  0.50000000  0.50236099  0.00000000  1
  V  V1  1  0.00000000  0.93763901  0.00000000  1
