# generated using pymatgen
data_3615_Al6Ba2
_symmetry_space_group_name_H-M   'P6_3/mmc'
_cell_length_a   7.40302991
_cell_length_b   7.40302917
_cell_length_c   4.60972277
_cell_angle_alpha   90.00000000
_cell_angle_beta   90.00000000
_cell_angle_gamma   119.99999788
_chemical_formula_structural   Al6Ba2
_chemical_formula_sum   'Al6 Ba2'
_cell_volume   218.78846081
loop_
 _symmetry_equiv_pos_site_id
 _symmetry_equiv_pos_as_xyz
  1  'x, y, z'
loop_
 _atom_type_symbol
  Al
  Ba
loop_
 _atom_site_type_symbol
 _atom_site_label
 _atom_site_symmetry_multiplicity
 _atom_site_fract_x
 _atom_site_fract_y
 _atom_site_fract_z
 _atom_site_occupancy
  Al  Al0  1  0.12502310  0.25004620  0.25000000  1
  Al  Al1  1  0.12502310  0.87497690  0.25000000  1
  Al  Al2  1  0.74995380  0.87497690  0.25000000  1
  Al  Al3  1  0.25004620  0.12502310  0.75000000  1
  Al  Al4  1  0.87497690  0.12502310  0.75000000  1
  Al  Al5  1  0.87497690  0.74995380  0.75000000  1
  Ba  Ba0  1  0.66666700  0.33333300  0.25000000  1
  Ba  Ba1  1  0.33333300  0.66666700  0.75000000  1
