# generated using pymatgen
data_3620_Ga3K
_symmetry_space_group_name_H-M   'Pmm2'
_cell_length_a   3.17022273
_cell_length_b   4.40007484
_cell_length_c   7.44616703
_cell_angle_alpha   90.00000000
_cell_angle_beta   90.00000000
_cell_angle_gamma   90.00000000
_chemical_formula_structural   Ga3K
_chemical_formula_sum   'Ga3 K1'
_cell_volume   103.86820174
loop_
 _symmetry_equiv_pos_site_id
 _symmetry_equiv_pos_as_xyz
  1  'x, y, z'
loop_
 _atom_type_symbol
  Ga
  K
loop_
 _atom_site_type_symbol
 _atom_site_label
 _atom_site_symmetry_multiplicity
 _atom_site_fract_x
 _atom_site_fract_y
 _atom_site_fract_z
 _atom_site_occupancy
  Ga  Ga0  1  0.00000000  0.00000000  0.94840021  1
  Ga  Ga1  1  0.50000000  0.00000000  0.60821013  1
  Ga  Ga2  1  0.50000000  0.50000000  0.80399735  1
  K  K0  1  0.00000000  0.50000000  0.30605897  1
