# generated using pymatgen
data_3626_Nb2Sr2
_symmetry_space_group_name_H-M   'Cmcm'
_cell_length_a   6.74903892
_cell_length_b   6.74903892
_cell_length_c   3.86042159
_cell_angle_alpha   90.00000000
_cell_angle_beta   90.00000000
_cell_angle_gamma   131.94343995
_chemical_formula_structural   Nb2Sr2
_chemical_formula_sum   'Nb2 Sr2'
_cell_volume   130.79095026
loop_
 _symmetry_equiv_pos_site_id
 _symmetry_equiv_pos_as_xyz
  1  'x, y, z'
loop_
 _atom_type_symbol
  Nb
  Sr
loop_
 _atom_site_type_symbol
 _atom_site_label
 _atom_site_symmetry_multiplicity
 _atom_site_fract_x
 _atom_site_fract_y
 _atom_site_fract_z
 _atom_site_occupancy
  Nb  Nb0  1  0.56161380  0.43838620  0.75000000  1
  Nb  Nb1  1  0.43838620  0.56161380  0.25000000  1
  Sr  Sr0  1  0.86000893  0.13999107  0.75000000  1
  Sr  Sr1  1  0.13999107  0.86000893  0.25000000  1
