# generated using pymatgen
data_3629_Na2Sn2
_symmetry_space_group_name_H-M   'Pmma'
_cell_length_a   5.23864860
_cell_length_b   3.48943186
_cell_length_c   6.85113524
_cell_angle_alpha   59.01924689
_cell_angle_beta   90.00000000
_cell_angle_gamma   90.00000000
_chemical_formula_structural   Na2Sn2
_chemical_formula_sum   'Na2 Sn2'
_cell_volume   107.37168057
loop_
 _symmetry_equiv_pos_site_id
 _symmetry_equiv_pos_as_xyz
  1  'x, y, z'
loop_
 _atom_type_symbol
  Na
  Sn
loop_
 _atom_site_type_symbol
 _atom_site_label
 _atom_site_symmetry_multiplicity
 _atom_site_fract_x
 _atom_site_fract_y
 _atom_site_fract_z
 _atom_site_occupancy
  Na  Na0  1  0.75000000  0.15466837  0.83944547  1
  Na  Na1  1  0.25000000  0.84533163  0.16055453  1
  Sn  Sn0  1  0.75000000  0.14755696  0.35317129  1
  Sn  Sn1  1  0.25000000  0.85244304  0.64682871  1
