# generated using pymatgen
data_362_Au6Ga10
_symmetry_space_group_name_H-M   'I4/mcm'
_cell_length_a   7.70032651
_cell_length_b   7.69931127
_cell_length_c   7.69666946
_cell_angle_alpha   100.65800322
_cell_angle_beta   100.66427137
_cell_angle_gamma   129.06127665
_chemical_formula_structural   Au6Ga10
_chemical_formula_sum   'Au6 Ga10'
_cell_volume   319.85160037
loop_
 _symmetry_equiv_pos_site_id
 _symmetry_equiv_pos_as_xyz
  1  'x, y, z'
loop_
 _atom_type_symbol
  Au
  Ga
loop_
 _atom_site_type_symbol
 _atom_site_label
 _atom_site_symmetry_multiplicity
 _atom_site_fract_x
 _atom_site_fract_y
 _atom_site_fract_z
 _atom_site_occupancy
  Au  Au0  1  0.75081777  0.74997514  0.99999605  1
  Au  Au1  1  0.25082172  0.24997909  0.00000395  1
  Au  Au2  1  0.34823348  0.15063085  0.50000000  1
  Au  Au3  1  0.64943150  0.84931985  0.50000000  1
  Au  Au4  1  0.14935411  0.64969482  0.80111732  1
  Au  Au5  1  0.84823678  0.34857749  0.19888268  1
  Ga  Ga0  1  0.24876875  0.74970231  0.50000000  1
  Ga  Ga1  1  0.74841091  0.24935127  0.50000000  1
  Ga  Ga2  1  0.78880659  0.08249833  0.87207698  1
  Ga  Ga3  1  0.21057340  0.91670079  0.12810887  1
  Ga  Ga4  1  0.71121846  0.58386062  0.29376572  1
  Ga  Ga5  1  0.28915050  0.41844465  0.70628801  1
  Ga  Ga6  1  0.58246453  0.28859192  0.87189113  1
  Ga  Ga7  1  0.41672960  0.71042134  0.12792302  1
  Ga  Ga8  1  0.08286249  0.21215664  0.29371199  1
  Ga  Ga9  1  0.91745274  0.79009490  0.70623428  1
