# generated using pymatgen
data_3632_Mn8P16
_symmetry_space_group_name_H-M   'Fd -3 m'
_cell_length_a   7.60616366
_cell_length_b   7.60616366
_cell_length_c   7.60616366
_cell_angle_alpha   60.00000000
_cell_angle_beta   60.00000000
_cell_angle_gamma   60.00000000
_chemical_formula_structural   Mn8P16
_chemical_formula_sum   'Mn8 P16'
_cell_volume   311.15873617
loop_
 _symmetry_equiv_pos_site_id
 _symmetry_equiv_pos_as_xyz
  1  'x, y, z'
loop_
 _atom_type_symbol
  Mn
  P
loop_
 _atom_site_type_symbol
 _atom_site_label
 _atom_site_symmetry_multiplicity
 _atom_site_fract_x
 _atom_site_fract_y
 _atom_site_fract_z
 _atom_site_occupancy
  Mn  Mn0  1  0.72292619  0.72292619  0.83122142  1
  Mn  Mn1  1  0.72292619  0.72292619  0.22292619  1
  Mn  Mn2  1  0.72292619  0.33122142  0.22292619  1
  Mn  Mn3  1  0.33122142  0.72292619  0.22292619  1
  Mn  Mn4  1  0.27707381  0.27707381  0.16877858  1
  Mn  Mn5  1  0.27707381  0.27707381  0.77707381  1
  Mn  Mn6  1  0.27707381  0.66877858  0.77707381  1
  Mn  Mn7  1  0.66877858  0.27707381  0.77707381  1
  P  P0  1  0.00000000  0.50000000  0.00000000  1
  P  P1  1  0.50000000  0.00000000  0.00000000  1
  P  P2  1  0.50000000  0.50000000  0.00000000  1
  P  P3  1  0.50000000  0.50000000  0.50000000  1
  P  P4  1  0.90544462  0.90544462  0.84455538  1
  P  P5  1  0.90544462  0.34455538  0.84455538  1
  P  P6  1  0.34455538  0.90544462  0.84455538  1
  P  P7  1  0.90544462  0.34455538  0.40544462  1
  P  P8  1  0.34455538  0.90544462  0.40544462  1
  P  P9  1  0.34455538  0.34455538  0.40544462  1
  P  P10  1  0.09455538  0.09455538  0.15544462  1
  P  P11  1  0.09455538  0.65544462  0.15544462  1
  P  P12  1  0.65544462  0.09455538  0.15544462  1
  P  P13  1  0.09455538  0.65544462  0.59455538  1
  P  P14  1  0.65544462  0.09455538  0.59455538  1
  P  P15  1  0.65544462  0.65544462  0.59455538  1
