# generated using pymatgen
data_3634_In2Ge4
_symmetry_space_group_name_H-M   'I4/mcm'
_cell_length_a   5.63082736
_cell_length_b   5.63082736
_cell_length_c   5.63082736
_cell_angle_alpha   109.11055584
_cell_angle_beta   109.11055584
_cell_angle_gamma   110.19498356
_chemical_formula_structural   In2Ge4
_chemical_formula_sum   'Ge4 In2'
_cell_volume   137.41770502
loop_
 _symmetry_equiv_pos_site_id
 _symmetry_equiv_pos_as_xyz
  1  'x, y, z'
loop_
 _atom_type_symbol
  Ge
  In
loop_
 _atom_site_type_symbol
 _atom_site_label
 _atom_site_symmetry_multiplicity
 _atom_site_fract_x
 _atom_site_fract_y
 _atom_site_fract_z
 _atom_site_occupancy
  Ge  Ge0  1  0.35961289  0.14038711  0.50000000  1
  Ge  Ge1  1  0.64038711  0.85961289  0.50000000  1
  Ge  Ge2  1  0.14038711  0.64038711  0.78077421  1
  Ge  Ge3  1  0.85961289  0.35961289  0.21922579  1
  In  In0  1  0.75000000  0.75000000  0.00000000  1
  In  In1  1  0.25000000  0.25000000  0.00000000  1
