# generated using pymatgen
data_3636_Fe2Br4
_symmetry_space_group_name_H-M   'Pnnm'
_cell_length_a   3.66508177
_cell_length_b   5.62322339
_cell_length_c   5.91621799
_cell_angle_alpha   90.00000000
_cell_angle_beta   90.00000000
_cell_angle_gamma   90.00000000
_chemical_formula_structural   Fe2Br4
_chemical_formula_sum   'Br4 Fe2'
_cell_volume   121.93072972
loop_
 _symmetry_equiv_pos_site_id
 _symmetry_equiv_pos_as_xyz
  1  'x, y, z'
loop_
 _atom_type_symbol
  Br
  Fe
loop_
 _atom_site_type_symbol
 _atom_site_label
 _atom_site_symmetry_multiplicity
 _atom_site_fract_x
 _atom_site_fract_y
 _atom_site_fract_z
 _atom_site_occupancy
  Br  Br0  1  0.00000000  0.25994045  0.65390329  1
  Br  Br1  1  0.00000000  0.74005955  0.34609671  1
  Br  Br2  1  0.50000000  0.75994045  0.84609671  1
  Br  Br3  1  0.50000000  0.24005955  0.15390329  1
  Fe  Fe0  1  0.00000000  0.00000000  0.00000000  1
  Fe  Fe1  1  0.50000000  0.50000000  0.50000000  1
