# generated using pymatgen
data_3638_Cu2Fe2
_symmetry_space_group_name_H-M   'Imma'
_cell_length_a   4.15962625
_cell_length_b   4.76314518
_cell_length_c   2.87042007
_cell_angle_alpha   72.46336071
_cell_angle_beta   90.00000000
_cell_angle_gamma   115.89014250
_chemical_formula_structural   Cu2Fe2
_chemical_formula_sum   'Cu2 Fe2'
_cell_volume   48.20827202
loop_
 _symmetry_equiv_pos_site_id
 _symmetry_equiv_pos_as_xyz
  1  'x, y, z'
loop_
 _atom_type_symbol
  Cu
  Fe
loop_
 _atom_site_type_symbol
 _atom_site_label
 _atom_site_symmetry_multiplicity
 _atom_site_fract_x
 _atom_site_fract_y
 _atom_site_fract_z
 _atom_site_occupancy
  Cu  Cu0  1  0.99873158  0.99746317  0.00126842  1
  Cu  Cu1  1  0.25126842  0.50253683  0.24873158  1
  Fe  Fe0  1  0.50710745  0.01421490  0.49289255  1
  Fe  Fe1  1  0.74289255  0.48578510  0.75710745  1
