# generated using pymatgen
data_3641_MnPd3
_symmetry_space_group_name_H-M   'Pmm2'
_cell_length_a   2.88532918
_cell_length_b   4.50118961
_cell_length_c   4.72822455
_cell_angle_alpha   90.00000000
_cell_angle_beta   90.00000000
_cell_angle_gamma   90.00000000
_chemical_formula_structural   MnPd3
_chemical_formula_sum   'Mn1 Pd3'
_cell_volume   61.40740842
loop_
 _symmetry_equiv_pos_site_id
 _symmetry_equiv_pos_as_xyz
  1  'x, y, z'
loop_
 _atom_type_symbol
  Mn
  Pd
loop_
 _atom_site_type_symbol
 _atom_site_label
 _atom_site_symmetry_multiplicity
 _atom_site_fract_x
 _atom_site_fract_y
 _atom_site_fract_z
 _atom_site_occupancy
  Mn  Mn0  1  0.00000000  0.00000000  0.99629832  1
  Pd  Pd0  1  0.00000000  0.50000000  0.33794083  1
  Pd  Pd1  1  0.50000000  0.00000000  0.49151242  1
  Pd  Pd2  1  0.50000000  0.50000000  0.84091509  1
