# generated using pymatgen
data_3649_Cu2Ge4
_symmetry_space_group_name_H-M   'Cmcm'
_cell_length_a   6.42256549
_cell_length_b   6.42256549
_cell_length_c   4.30241531
_cell_angle_alpha   90.00000000
_cell_angle_beta   90.00000000
_cell_angle_gamma   145.72911214
_chemical_formula_structural   Cu2Ge4
_chemical_formula_sum   'Cu2 Ge4'
_cell_volume   99.93549039
loop_
 _symmetry_equiv_pos_site_id
 _symmetry_equiv_pos_as_xyz
  1  'x, y, z'
loop_
 _atom_type_symbol
  Cu
  Ge
loop_
 _atom_site_type_symbol
 _atom_site_label
 _atom_site_symmetry_multiplicity
 _atom_site_fract_x
 _atom_site_fract_y
 _atom_site_fract_z
 _atom_site_occupancy
  Cu  Cu0  1  0.09591871  0.90408129  0.25000000  1
  Cu  Cu1  1  0.90408129  0.09591871  0.75000000  1
  Ge  Ge0  1  0.43543156  0.56456844  0.25000000  1
  Ge  Ge1  1  0.56456844  0.43543156  0.75000000  1
  Ge  Ge2  1  0.76261716  0.23738284  0.25000000  1
  Ge  Ge3  1  0.23738284  0.76261716  0.75000000  1
