# generated using pymatgen
data_364_Ca2Sn
_symmetry_space_group_name_H-M   'I4/mmm'
_cell_length_a   7.79248690
_cell_length_b   7.79248690
_cell_length_c   7.79248690
_cell_angle_alpha   152.90035749
_cell_angle_beta   152.90035749
_cell_angle_gamma   38.69991877
_chemical_formula_structural   Ca2Sn
_chemical_formula_sum   'Ca2 Sn1'
_cell_volume   98.02713217
loop_
 _symmetry_equiv_pos_site_id
 _symmetry_equiv_pos_as_xyz
  1  'x, y, z'
loop_
 _atom_type_symbol
  Ca
  Sn
loop_
 _atom_site_type_symbol
 _atom_site_label
 _atom_site_symmetry_multiplicity
 _atom_site_fract_x
 _atom_site_fract_y
 _atom_site_fract_z
 _atom_site_occupancy
  Ca  Ca0  1  0.64244737  0.64244737  0.00000000  1
  Ca  Ca1  1  0.35755263  0.35755263  0.00000000  1
  Sn  Sn0  1  0.00000000  0.00000000  0.00000000  1
