# generated using pymatgen
data_365_In2Na2
_symmetry_space_group_name_H-M   'P4/nmm'
_cell_length_a   3.94165051
_cell_length_b   3.94165051
_cell_length_c   7.22450897
_cell_angle_alpha   90.00000000
_cell_angle_beta   90.00000000
_cell_angle_gamma   90.00000000
_chemical_formula_structural   In2Na2
_chemical_formula_sum   'In2 Na2'
_cell_volume   112.24436923
loop_
 _symmetry_equiv_pos_site_id
 _symmetry_equiv_pos_as_xyz
  1  'x, y, z'
loop_
 _atom_type_symbol
  In
  Na
loop_
 _atom_site_type_symbol
 _atom_site_label
 _atom_site_symmetry_multiplicity
 _atom_site_fract_x
 _atom_site_fract_y
 _atom_site_fract_z
 _atom_site_occupancy
  In  In0  1  0.00000000  0.00000000  0.01136893  1
  In  In1  1  0.50000000  0.50000000  0.23863107  1
  Na  Na0  1  0.00000000  0.00000000  0.48351196  1
  Na  Na1  1  0.50000000  0.50000000  0.76648804  1
