# generated using pymatgen
data_3666_Ba2Na2
_symmetry_space_group_name_H-M   'P4/nmm'
_cell_length_a   4.43180843
_cell_length_b   4.43180843
_cell_length_c   10.33780447
_cell_angle_alpha   90.00000000
_cell_angle_beta   90.00000000
_cell_angle_gamma   90.00000000
_chemical_formula_structural   Ba2Na2
_chemical_formula_sum   'Ba2 Na2'
_cell_volume   203.04405219
loop_
 _symmetry_equiv_pos_site_id
 _symmetry_equiv_pos_as_xyz
  1  'x, y, z'
loop_
 _atom_type_symbol
  Ba
  Na
loop_
 _atom_site_type_symbol
 _atom_site_label
 _atom_site_symmetry_multiplicity
 _atom_site_fract_x
 _atom_site_fract_y
 _atom_site_fract_z
 _atom_site_occupancy
  Ba  Ba0  1  0.00000000  0.00000000  0.03732777  1
  Ba  Ba1  1  0.50000000  0.50000000  0.71267223  1
  Na  Na0  1  0.00000000  0.00000000  0.46115138  1
  Na  Na1  1  0.50000000  0.50000000  0.28884862  1
