# generated using pymatgen
data_3668_Ga8Nb4
_symmetry_space_group_name_H-M   'Pnma'
_cell_length_a   3.87065385
_cell_length_b   5.56060322
_cell_length_c   9.08189882
_cell_angle_alpha   90.00000000
_cell_angle_beta   90.00000000
_cell_angle_gamma   90.00000000
_chemical_formula_structural   Ga8Nb4
_chemical_formula_sum   'Ga8 Nb4'
_cell_volume   195.47125460
loop_
 _symmetry_equiv_pos_site_id
 _symmetry_equiv_pos_as_xyz
  1  'x, y, z'
loop_
 _atom_type_symbol
  Ga
  Nb
loop_
 _atom_site_type_symbol
 _atom_site_label
 _atom_site_symmetry_multiplicity
 _atom_site_fract_x
 _atom_site_fract_y
 _atom_site_fract_z
 _atom_site_occupancy
  Ga  Ga0  1  0.25000000  0.15252176  0.77739892  1
  Ga  Ga1  1  0.75000000  0.34747824  0.27739892  1
  Ga  Ga2  1  0.25000000  0.65252176  0.72260108  1
  Ga  Ga3  1  0.75000000  0.84747824  0.22260108  1
  Ga  Ga4  1  0.25000000  0.12845538  0.44175852  1
  Ga  Ga5  1  0.75000000  0.37154462  0.94175852  1
  Ga  Ga6  1  0.25000000  0.62845538  0.05824148  1
  Ga  Ga7  1  0.75000000  0.87154462  0.55824148  1
  Nb  Nb0  1  0.25000000  0.62705707  0.38279263  1
  Nb  Nb1  1  0.75000000  0.87294293  0.88279263  1
  Nb  Nb2  1  0.25000000  0.12705707  0.11720737  1
  Nb  Nb3  1  0.75000000  0.37294293  0.61720737  1
