# generated using pymatgen
data_366_NiAs3
_symmetry_space_group_name_H-M   'Fm -3 m'
_cell_length_a   4.55654943
_cell_length_b   4.55654943
_cell_length_c   4.55654943
_cell_angle_alpha   60.00000000
_cell_angle_beta   60.00000000
_cell_angle_gamma   60.00000000
_chemical_formula_structural   NiAs3
_chemical_formula_sum   'As3 Ni1'
_cell_volume   66.89493862
loop_
 _symmetry_equiv_pos_site_id
 _symmetry_equiv_pos_as_xyz
  1  'x, y, z'
loop_
 _atom_type_symbol
  As
  Ni
loop_
 _atom_site_type_symbol
 _atom_site_label
 _atom_site_symmetry_multiplicity
 _atom_site_fract_x
 _atom_site_fract_y
 _atom_site_fract_z
 _atom_site_occupancy
  As  As0  1  0.00000000  0.00000000  0.00000000  1
  As  As1  1  0.24999948  0.24999948  0.24999948  1
  As  As2  1  0.50000051  0.50000051  0.50000051  1
  Ni  Ni0  1  0.74999999  0.74999999  0.74999999  1
