# generated using pymatgen
data_3671_GaMo2
_symmetry_space_group_name_H-M   'P4/mmm'
_cell_length_a   4.41702628
_cell_length_b   4.41702628
_cell_length_c   2.74410593
_cell_angle_alpha   90.00000000
_cell_angle_beta   90.00000000
_cell_angle_gamma   90.00000000
_chemical_formula_structural   GaMo2
_chemical_formula_sum   'Ga1 Mo2'
_cell_volume   53.53783917
loop_
 _symmetry_equiv_pos_site_id
 _symmetry_equiv_pos_as_xyz
  1  'x, y, z'
loop_
 _atom_type_symbol
  Ga
  Mo
loop_
 _atom_site_type_symbol
 _atom_site_label
 _atom_site_symmetry_multiplicity
 _atom_site_fract_x
 _atom_site_fract_y
 _atom_site_fract_z
 _atom_site_occupancy
  Ga  Ga0  1  0.00000000  0.00000000  0.00000000  1
  Mo  Mo0  1  0.00000000  0.50000000  0.50000000  1
  Mo  Mo1  1  0.50000000  0.00000000  0.50000000  1
