# generated using pymatgen
data_3673_Na2Pt
_symmetry_space_group_name_H-M   'I4/mmm'
_cell_length_a   6.08922797
_cell_length_b   6.08922797
_cell_length_c   6.08922797
_cell_angle_alpha   147.21641887
_cell_angle_beta   147.21641887
_cell_angle_gamma   47.04344529
_chemical_formula_structural   Na2Pt
_chemical_formula_sum   'Na2 Pt1'
_cell_volume   65.94762843
loop_
 _symmetry_equiv_pos_site_id
 _symmetry_equiv_pos_as_xyz
  1  'x, y, z'
loop_
 _atom_type_symbol
  Na
  Pt
loop_
 _atom_site_type_symbol
 _atom_site_label
 _atom_site_symmetry_multiplicity
 _atom_site_fract_x
 _atom_site_fract_y
 _atom_site_fract_z
 _atom_site_occupancy
  Na  Na0  1  0.35885951  0.35885951  0.00000000  1
  Na  Na1  1  0.64114049  0.64114049  0.00000000  1
  Pt  Pt0  1  0.00000000  0.00000000  0.00000000  1
