# generated using pymatgen
data_3678_K2Ta
_symmetry_space_group_name_H-M   'P4/mmm'
_cell_length_a   6.74557764
_cell_length_b   6.74557764
_cell_length_c   2.86525431
_cell_angle_alpha   90.00000000
_cell_angle_beta   90.00000000
_cell_angle_gamma   90.00000000
_chemical_formula_structural   K2Ta
_chemical_formula_sum   'K2 Ta1'
_cell_volume   130.37714452
loop_
 _symmetry_equiv_pos_site_id
 _symmetry_equiv_pos_as_xyz
  1  'x, y, z'
loop_
 _atom_type_symbol
  K
  Ta
loop_
 _atom_site_type_symbol
 _atom_site_label
 _atom_site_symmetry_multiplicity
 _atom_site_fract_x
 _atom_site_fract_y
 _atom_site_fract_z
 _atom_site_occupancy
  K  K0  1  0.00000000  0.50000000  0.50000000  1
  K  K1  1  0.50000000  0.00000000  0.50000000  1
  Ta  Ta0  1  0.00000000  0.00000000  0.00000000  1
