# generated using pymatgen
data_3682_Al4Pt8
_symmetry_space_group_name_H-M   'Pnma'
_cell_length_a   4.11261296
_cell_length_b   5.45851260
_cell_length_c   7.97999343
_cell_angle_alpha   90.00000000
_cell_angle_beta   90.00000000
_cell_angle_gamma   90.00000000
_chemical_formula_structural   Al4Pt8
_chemical_formula_sum   'Al4 Pt8'
_cell_volume   179.14087481
loop_
 _symmetry_equiv_pos_site_id
 _symmetry_equiv_pos_as_xyz
  1  'x, y, z'
loop_
 _atom_type_symbol
  Al
  Pt
loop_
 _atom_site_type_symbol
 _atom_site_label
 _atom_site_symmetry_multiplicity
 _atom_site_fract_x
 _atom_site_fract_y
 _atom_site_fract_z
 _atom_site_occupancy
  Al  Al0  1  0.25000000  0.69165876  0.39546580  1
  Al  Al1  1  0.75000000  0.80834124  0.89546580  1
  Al  Al2  1  0.75000000  0.30834124  0.60453420  1
  Al  Al3  1  0.25000000  0.19165876  0.10453420  1
  Pt  Pt0  1  0.25000000  0.04372565  0.79064653  1
  Pt  Pt1  1  0.75000000  0.45627435  0.29064653  1
  Pt  Pt2  1  0.75000000  0.95627435  0.20935347  1
  Pt  Pt3  1  0.25000000  0.54372565  0.70935347  1
  Pt  Pt4  1  0.25000000  0.16177833  0.43211599  1
  Pt  Pt5  1  0.75000000  0.33822167  0.93211599  1
  Pt  Pt6  1  0.75000000  0.83822167  0.56788401  1
  Pt  Pt7  1  0.25000000  0.66177833  0.06788401  1
