# generated using pymatgen
data_3684_Al2Cu2
_symmetry_space_group_name_H-M   'P4/nmm'
_cell_length_a   2.75444738
_cell_length_b   2.75444738
_cell_length_c   7.27004731
_cell_angle_alpha   90.00000000
_cell_angle_beta   90.00000000
_cell_angle_gamma   90.00000000
_chemical_formula_structural   Al2Cu2
_chemical_formula_sum   'Al2 Cu2'
_cell_volume   55.15770622
loop_
 _symmetry_equiv_pos_site_id
 _symmetry_equiv_pos_as_xyz
  1  'x, y, z'
loop_
 _atom_type_symbol
  Al
  Cu
loop_
 _atom_site_type_symbol
 _atom_site_label
 _atom_site_symmetry_multiplicity
 _atom_site_fract_x
 _atom_site_fract_y
 _atom_site_fract_z
 _atom_site_occupancy
  Al  Al0  1  0.00000000  0.00000000  0.02288583  1
  Al  Al1  1  0.50000000  0.50000000  0.72711417  1
  Cu  Cu0  1  0.00000000  0.00000000  0.49257547  1
  Cu  Cu1  1  0.50000000  0.50000000  0.25742453  1
