# generated using pymatgen
data_3686_Fe2Sr6
_symmetry_space_group_name_H-M   'I4/mmm'
_cell_length_a   11.33928416
_cell_length_b   11.33928416
_cell_length_c   11.33928416
_cell_angle_alpha   152.73717204
_cell_angle_beta   152.73717204
_cell_angle_gamma   38.93775249
_chemical_formula_structural   Fe2Sr6
_chemical_formula_sum   'Fe2 Sr6'
_cell_volume   305.40341834
loop_
 _symmetry_equiv_pos_site_id
 _symmetry_equiv_pos_as_xyz
  1  'x, y, z'
loop_
 _atom_type_symbol
  Fe
  Sr
loop_
 _atom_site_type_symbol
 _atom_site_label
 _atom_site_symmetry_multiplicity
 _atom_site_fract_x
 _atom_site_fract_y
 _atom_site_fract_z
 _atom_site_occupancy
  Fe  Fe0  1  0.36782731  0.36782731  0.00000000  1
  Fe  Fe1  1  0.63217269  0.63217269  0.00000000  1
  Sr  Sr0  1  0.00000000  0.50000000  0.50000000  1
  Sr  Sr1  1  0.50000000  0.00000000  0.50000000  1
  Sr  Sr2  1  0.25000000  0.75000000  0.50000000  1
  Sr  Sr3  1  0.75000000  0.25000000  0.50000000  1
  Sr  Sr4  1  0.12563489  0.12563489  0.00000000  1
  Sr  Sr5  1  0.87436511  0.87436511  0.00000000  1
