# generated using pymatgen
data_3692_Al2Ta2
_symmetry_space_group_name_H-M   'I4_1/amd'
_cell_length_a   4.64790327
_cell_length_b   4.53268487
_cell_length_c   4.53268487
_cell_angle_alpha   86.99895532
_cell_angle_beta   59.15550733
_cell_angle_gamma   59.15550733
_chemical_formula_structural   Al2Ta2
_chemical_formula_sum   'Al2 Ta2'
_cell_volume   67.45845412
loop_
 _symmetry_equiv_pos_site_id
 _symmetry_equiv_pos_as_xyz
  1  'x, y, z'
loop_
 _atom_type_symbol
  Al
  Ta
loop_
 _atom_site_type_symbol
 _atom_site_label
 _atom_site_symmetry_multiplicity
 _atom_site_fract_x
 _atom_site_fract_y
 _atom_site_fract_z
 _atom_site_occupancy
  Al  Al0  1  1.00000000  0.00008002  0.99991998  1
  Al  Al1  1  0.50000000  0.24991998  0.75008002  1
  Ta  Ta0  1  1.00000000  0.50006979  0.49993021  1
  Ta  Ta1  1  0.50000000  0.74993021  0.25006979  1
