# generated using pymatgen
data_3695_Cu2K2
_symmetry_space_group_name_H-M   'Pmma'
_cell_length_a   5.42134562
_cell_length_b   4.00101254
_cell_length_c   6.92490041
_cell_angle_alpha   54.18628375
_cell_angle_beta   90.00000000
_cell_angle_gamma   90.00000000
_chemical_formula_structural   Cu2K2
_chemical_formula_sum   'Cu2 K2'
_cell_volume   121.80652855
loop_
 _symmetry_equiv_pos_site_id
 _symmetry_equiv_pos_as_xyz
  1  'x, y, z'
loop_
 _atom_type_symbol
  Cu
  K
loop_
 _atom_site_type_symbol
 _atom_site_label
 _atom_site_symmetry_multiplicity
 _atom_site_fract_x
 _atom_site_fract_y
 _atom_site_fract_z
 _atom_site_occupancy
  Cu  Cu0  1  0.75000000  0.19881450  0.30241103  1
  Cu  Cu1  1  0.25000000  0.80118550  0.69758897  1
  K  K0  1  0.75000000  0.21915951  0.77027418  1
  K  K1  1  0.25000000  0.78084049  0.22972582  1
