# generated using pymatgen
data_3696_Cr2Sb2
_symmetry_space_group_name_H-M   'P6_3/mmc'
_cell_length_a   4.01221000
_cell_length_b   4.01249598
_cell_length_c   5.80991100
_cell_angle_alpha   90.00000000
_cell_angle_beta   90.00000000
_cell_angle_gamma   119.99764238
_chemical_formula_structural   Cr2Sb2
_chemical_formula_sum   'Cr2 Sb2'
_cell_volume   81.00441583
loop_
 _symmetry_equiv_pos_site_id
 _symmetry_equiv_pos_as_xyz
  1  'x, y, z'
loop_
 _atom_type_symbol
  Cr
  Sb
loop_
 _atom_site_type_symbol
 _atom_site_label
 _atom_site_symmetry_multiplicity
 _atom_site_fract_x
 _atom_site_fract_y
 _atom_site_fract_z
 _atom_site_occupancy
  Cr  Cr0  1  0.00000000  0.00000000  0.00000000  1
  Cr  Cr1  1  0.00000000  0.00000000  0.50000081  1
  Sb  Sb0  1  0.33332170  0.66664340  0.25000041  1
  Sb  Sb1  1  0.66668006  0.33335767  0.74999950  1
