# generated using pymatgen
data_3699_Ag10Fe6
_symmetry_space_group_name_H-M   'I4/mcm'
_cell_length_a   7.62672801
_cell_length_b   7.62672801
_cell_length_c   7.67793592
_cell_angle_alpha   96.03921633
_cell_angle_beta   96.03921633
_cell_angle_gamma   141.80938673
_chemical_formula_structural   Ag10Fe6
_chemical_formula_sum   'Ag10 Fe6'
_cell_volume   261.45594320
loop_
 _symmetry_equiv_pos_site_id
 _symmetry_equiv_pos_as_xyz
  1  'x, y, z'
loop_
 _atom_type_symbol
  Ag
  Fe
loop_
 _atom_site_type_symbol
 _atom_site_label
 _atom_site_symmetry_multiplicity
 _atom_site_fract_x
 _atom_site_fract_y
 _atom_site_fract_z
 _atom_site_occupancy
  Ag  Ag0  1  0.06678470  0.76651546  0.83351777  1
  Ag  Ag1  1  0.23273122  0.06731774  0.30025076  1
  Ag  Ag2  1  0.25094030  0.75094030  0.50082827  1
  Ag  Ag3  1  0.26651546  0.56678470  0.83351777  1
  Ag  Ag4  1  0.43375351  0.26682492  0.69948398  1
  Ag  Ag5  1  0.56731774  0.73273122  0.30025076  1
  Ag  Ag6  1  0.73450252  0.43466037  0.16794182  1
  Ag  Ag7  1  0.75018663  0.25018663  0.50012224  1
  Ag  Ag8  1  0.76682492  0.93375351  0.69948398  1
  Ag  Ag9  1  0.93466037  0.23450252  0.16794182  1
  Fe  Fe0  1  0.18153715  0.31981228  0.50139722  1
  Fe  Fe1  1  0.24996819  0.24995744  0.99939354  1
  Fe  Fe2  1  0.31987349  0.81987349  0.13763367  1
  Fe  Fe3  1  0.68130076  0.18130076  0.86411230  1
  Fe  Fe4  1  0.74995744  0.74996819  0.99939354  1
  Fe  Fe5  1  0.81981228  0.68153715  0.50139722  1
