# generated using pymatgen
data_36_Nb6Pt2
_symmetry_space_group_name_H-M   'Pm -3 n'
_cell_length_a   5.19329000
_cell_length_b   5.19329000
_cell_length_c   5.19329000
_cell_angle_alpha   90.00000000
_cell_angle_beta   90.00000000
_cell_angle_gamma   90.00000000
_chemical_formula_structural   Nb6Pt2
_chemical_formula_sum   'Nb6 Pt2'
_cell_volume   140.06438687
loop_
 _symmetry_equiv_pos_site_id
 _symmetry_equiv_pos_as_xyz
  1  'x, y, z'
loop_
 _atom_type_symbol
  Nb
  Pt
loop_
 _atom_site_type_symbol
 _atom_site_label
 _atom_site_symmetry_multiplicity
 _atom_site_fract_x
 _atom_site_fract_y
 _atom_site_fract_z
 _atom_site_occupancy
  Nb  Nb0  1  0.49999905  0.24999952  0.00000000  1
  Nb  Nb1  1  0.49999905  0.75000049  0.00000000  1
  Nb  Nb2  1  0.00000000  0.49999905  0.24999952  1
  Nb  Nb3  1  0.24999952  0.00000000  0.49999905  1
  Nb  Nb4  1  0.75000049  0.00000000  0.49999905  1
  Nb  Nb5  1  0.00000000  0.49999905  0.75000049  1
  Pt  Pt0  1  0.00000000  0.00000000  0.00000000  1
  Pt  Pt1  1  0.49999905  0.49999905  0.49999905  1
