# generated using pymatgen
data_3700_MoNb2
_symmetry_space_group_name_H-M   'I4/mmm'
_cell_length_a   5.42684359
_cell_length_b   5.42684359
_cell_length_c   4.58604736
_cell_angle_alpha   90.00000000
_cell_angle_beta   90.00000000
_cell_angle_gamma   130.01873261
_chemical_formula_structural   MoNb2
_chemical_formula_sum   'Mo2 Nb4'
_cell_volume   103.43509727
loop_
 _symmetry_equiv_pos_site_id
 _symmetry_equiv_pos_as_xyz
  1  'x, y, z'
loop_
 _atom_type_symbol
  Mo
  Nb
loop_
 _atom_site_type_symbol
 _atom_site_label
 _atom_site_symmetry_multiplicity
 _atom_site_fract_x
 _atom_site_fract_y
 _atom_site_fract_z
 _atom_site_occupancy
  Mo  Mo0  1  0.25053649  0.25053649  0.25000000  1
  Mo  Mo1  1  0.74946351  0.74946351  0.75000000  1
  Nb  Nb0  1  0.58873979  0.91152643  0.25000000  1
  Nb  Nb1  1  0.41126021  0.08847357  0.75000000  1
  Nb  Nb2  1  0.91152643  0.58873979  0.25000000  1
  Nb  Nb3  1  0.08847357  0.41126021  0.75000000  1
