# generated using pymatgen
data_3708_Ni8Ge4
_symmetry_space_group_name_H-M   'Pnma'
_cell_length_a   5.13659800
_cell_length_b   3.83957200
_cell_length_c   7.26675300
_cell_angle_alpha   90.00000000
_cell_angle_beta   90.00000000
_cell_angle_gamma   90.00000000
_chemical_formula_structural   Ni8Ge4
_chemical_formula_sum   'Ge4 Ni8'
_cell_volume   143.31735778
loop_
 _symmetry_equiv_pos_site_id
 _symmetry_equiv_pos_as_xyz
  1  'x, y, z'
loop_
 _atom_type_symbol
  Ge
  Ni
loop_
 _atom_site_type_symbol
 _atom_site_label
 _atom_site_symmetry_multiplicity
 _atom_site_fract_x
 _atom_site_fract_y
 _atom_site_fract_z
 _atom_site_occupancy
  Ge  Ge0  1  0.78825721  0.24999925  0.11290187  1
  Ge  Ge1  1  0.28825696  0.24999925  0.38709861  1
  Ge  Ge2  1  0.71174352  0.75000035  0.61290097  1
  Ge  Ge3  1  0.21174328  0.75000035  0.88709772  1
  Ni  Ni0  1  0.32745606  0.24999925  0.06029240  1
  Ni  Ni1  1  0.04205702  0.75000035  0.20849477  1
  Ni  Ni2  1  0.54205727  0.75000035  0.29150571  1
  Ni  Ni3  1  0.82745631  0.24999925  0.43970670  1
  Ni  Ni4  1  0.17254418  0.75000035  0.56029288  1
  Ni  Ni5  1  0.45794322  0.24999925  0.70849525  1
  Ni  Ni6  1  0.95794346  0.24999925  0.79150481  1
  Ni  Ni7  1  0.67254442  0.75000035  0.93970718  1
