# generated using pymatgen
data_3709_Al4Ga2
_symmetry_space_group_name_H-M   'I4/mcm'
_cell_length_a   5.20914024
_cell_length_b   5.20914024
_cell_length_c   5.20914024
_cell_angle_alpha   106.31564032
_cell_angle_beta   106.31564032
_cell_angle_gamma   115.98543146
_chemical_formula_structural   Al4Ga2
_chemical_formula_sum   'Al4 Ga2'
_cell_volume   107.74525533
loop_
 _symmetry_equiv_pos_site_id
 _symmetry_equiv_pos_as_xyz
  1  'x, y, z'
loop_
 _atom_type_symbol
  Al
  Ga
loop_
 _atom_site_type_symbol
 _atom_site_label
 _atom_site_symmetry_multiplicity
 _atom_site_fract_x
 _atom_site_fract_y
 _atom_site_fract_z
 _atom_site_occupancy
  Al  Al0  1  0.34920301  0.15079699  0.50000000  1
  Al  Al1  1  0.65079699  0.84920301  0.50000000  1
  Al  Al2  1  0.15079699  0.65079699  0.80159397  1
  Al  Al3  1  0.84920301  0.34920301  0.19840603  1
  Ga  Ga0  1  0.75000000  0.75000000  0.00000000  1
  Ga  Ga1  1  0.25000000  0.25000000  0.00000000  1
