# generated using pymatgen
data_3711_Ga10Mn4
_symmetry_space_group_name_H-M   'P4/mbm'
_cell_length_a   8.80119500
_cell_length_b   8.80119500
_cell_length_c   2.69055162
_cell_angle_alpha   90.00000000
_cell_angle_beta   90.00000000
_cell_angle_gamma   90.00000000
_chemical_formula_structural   Ga10Mn4
_chemical_formula_sum   'Ga10 Mn4'
_cell_volume   208.41290898
loop_
 _symmetry_equiv_pos_site_id
 _symmetry_equiv_pos_as_xyz
  1  'x, y, z'
loop_
 _atom_type_symbol
  Ga
  Mn
loop_
 _atom_site_type_symbol
 _atom_site_label
 _atom_site_symmetry_multiplicity
 _atom_site_fract_x
 _atom_site_fract_y
 _atom_site_fract_z
 _atom_site_occupancy
  Ga  Ga0  1  0.50000000  0.00000000  0.00000000  1
  Ga  Ga1  1  0.00000000  0.50000000  0.00000000  1
  Ga  Ga2  1  0.20566654  0.06448967  0.00000000  1
  Ga  Ga3  1  0.79433346  0.93551033  0.00000000  1
  Ga  Ga4  1  0.93551033  0.20566654  0.00000000  1
  Ga  Ga5  1  0.06448967  0.79433346  0.00000000  1
  Ga  Ga6  1  0.29433346  0.56448967  0.00000000  1
  Ga  Ga7  1  0.70566654  0.43551033  0.00000000  1
  Ga  Ga8  1  0.56448967  0.70566654  0.00000000  1
  Ga  Ga9  1  0.43551033  0.29433346  0.00000000  1
  Mn  Mn0  1  0.67839557  0.17839557  0.50000000  1
  Mn  Mn1  1  0.32160443  0.82160443  0.50000000  1
  Mn  Mn2  1  0.82160443  0.67839557  0.50000000  1
  Mn  Mn3  1  0.17839557  0.32160443  0.50000000  1
