# generated using pymatgen
data_3712_Na5Pt
_symmetry_space_group_name_H-M   'Cmmm'
_cell_length_a   7.06450129
_cell_length_b   7.06450129
_cell_length_c   4.79740298
_cell_angle_alpha   90.00000000
_cell_angle_beta   90.00000000
_cell_angle_gamma   139.89421750
_chemical_formula_structural   Na5Pt
_chemical_formula_sum   'Na5 Pt1'
_cell_volume   154.23768367
loop_
 _symmetry_equiv_pos_site_id
 _symmetry_equiv_pos_as_xyz
  1  'x, y, z'
loop_
 _atom_type_symbol
  Na
  Pt
loop_
 _atom_site_type_symbol
 _atom_site_label
 _atom_site_symmetry_multiplicity
 _atom_site_fract_x
 _atom_site_fract_y
 _atom_site_fract_z
 _atom_site_occupancy
  Na  Na0  1  0.82857919  0.17142081  0.50000000  1
  Na  Na1  1  0.61845318  0.38154682  0.00000000  1
  Na  Na2  1  0.47222477  0.52777523  0.50000000  1
  Na  Na3  1  0.32601854  0.67398146  0.00000000  1
  Na  Na4  1  0.11583135  0.88416865  0.50000000  1
  Pt  Pt0  1  0.97222630  0.02777370  0.00000000  1
