# generated using pymatgen
data_3714_Fe2Sr6
_symmetry_space_group_name_H-M   'I4/mmm'
_cell_length_a   11.69690025
_cell_length_b   11.69690025
_cell_length_c   11.69690025
_cell_angle_alpha   153.80150028
_cell_angle_beta   153.80150028
_cell_angle_gamma   37.38818413
_chemical_formula_structural   Fe2Sr6
_chemical_formula_sum   'Fe2 Sr6'
_cell_volume   311.45943779
loop_
 _symmetry_equiv_pos_site_id
 _symmetry_equiv_pos_as_xyz
  1  'x, y, z'
loop_
 _atom_type_symbol
  Fe
  Sr
loop_
 _atom_site_type_symbol
 _atom_site_label
 _atom_site_symmetry_multiplicity
 _atom_site_fract_x
 _atom_site_fract_y
 _atom_site_fract_z
 _atom_site_occupancy
  Fe  Fe0  1  0.37484282  0.37484282  0.00000000  1
  Fe  Fe1  1  0.62515718  0.62515718  0.00000000  1
  Sr  Sr0  1  0.00000000  0.50000000  0.50000000  1
  Sr  Sr1  1  0.50000000  0.00000000  0.50000000  1
  Sr  Sr2  1  0.25000000  0.75000000  0.50000000  1
  Sr  Sr3  1  0.75000000  0.25000000  0.50000000  1
  Sr  Sr4  1  0.12447740  0.12447740  0.00000000  1
  Sr  Sr5  1  0.87552260  0.87552260  0.00000000  1
