# generated using pymatgen
data_3718_Na2Pt2
_symmetry_space_group_name_H-M   'P4/nmm'
_cell_length_a   3.77384063
_cell_length_b   3.77384063
_cell_length_c   6.68873978
_cell_angle_alpha   90.00000000
_cell_angle_beta   90.00000000
_cell_angle_gamma   90.00000000
_chemical_formula_structural   Na2Pt2
_chemical_formula_sum   'Na2 Pt2'
_cell_volume   95.26018315
loop_
 _symmetry_equiv_pos_site_id
 _symmetry_equiv_pos_as_xyz
  1  'x, y, z'
loop_
 _atom_type_symbol
  Na
  Pt
loop_
 _atom_site_type_symbol
 _atom_site_label
 _atom_site_symmetry_multiplicity
 _atom_site_fract_x
 _atom_site_fract_y
 _atom_site_fract_z
 _atom_site_occupancy
  Na  Na0  1  0.25000000  0.25000000  0.32546542  1
  Na  Na1  1  0.75000000  0.75000000  0.67453458  1
  Pt  Pt0  1  0.25000000  0.75000000  0.00000000  1
  Pt  Pt1  1  0.75000000  0.25000000  0.00000000  1
