# generated using pymatgen
data_3724_Fe5Pd
_symmetry_space_group_name_H-M   'Cmmm'
_cell_length_a   4.89505777
_cell_length_b   4.89505777
_cell_length_c   4.11821774
_cell_angle_alpha   90.00000000
_cell_angle_beta   90.00000000
_cell_angle_gamma   130.17899318
_chemical_formula_structural   Fe5Pd
_chemical_formula_sum   'Fe5 Pd1'
_cell_volume   75.39401192
loop_
 _symmetry_equiv_pos_site_id
 _symmetry_equiv_pos_as_xyz
  1  'x, y, z'
loop_
 _atom_type_symbol
  Fe
  Pd
loop_
 _atom_site_type_symbol
 _atom_site_label
 _atom_site_symmetry_multiplicity
 _atom_site_fract_x
 _atom_site_fract_y
 _atom_site_fract_z
 _atom_site_occupancy
  Fe  Fe0  1  0.79840788  0.20159212  0.50000000  1
  Fe  Fe1  1  0.64377305  0.35622695  0.00000000  1
  Fe  Fe2  1  0.47222487  0.52777513  0.50000000  1
  Fe  Fe3  1  0.30068623  0.69931377  0.00000000  1
  Fe  Fe4  1  0.14602254  0.85397746  0.50000000  1
  Pd  Pd0  1  0.97221877  0.02778123  0.00000000  1
