# generated using pymatgen
data_3725_Ga3Sr
_symmetry_space_group_name_H-M   'Cmmm'
_cell_length_a   3.59278903
_cell_length_b   3.59278903
_cell_length_c   7.13926788
_cell_angle_alpha   90.00000000
_cell_angle_beta   90.00000000
_cell_angle_gamma   94.15323015
_chemical_formula_structural   Ga3Sr
_chemical_formula_sum   'Ga3 Sr1'
_cell_volume   91.91261483
loop_
 _symmetry_equiv_pos_site_id
 _symmetry_equiv_pos_as_xyz
  1  'x, y, z'
loop_
 _atom_type_symbol
  Ga
  Sr
loop_
 _atom_site_type_symbol
 _atom_site_label
 _atom_site_symmetry_multiplicity
 _atom_site_fract_x
 _atom_site_fract_y
 _atom_site_fract_z
 _atom_site_occupancy
  Ga  Ga0  1  0.00000000  0.00000000  0.93940217  1
  Ga  Ga1  1  0.50000000  0.50000000  0.75000000  1
  Ga  Ga2  1  0.00000000  0.00000000  0.56059783  1
  Sr  Sr0  1  0.50000000  0.50000000  0.25000000  1
