# generated using pymatgen
data_3731_Cu2Sb6
_symmetry_space_group_name_H-M   'Cmcm'
_cell_length_a   5.93254413
_cell_length_b   5.93254413
_cell_length_c   5.93354659
_cell_angle_alpha   90.00000000
_cell_angle_beta   90.00000000
_cell_angle_gamma   88.68619490
_chemical_formula_structural   Cu2Sb6
_chemical_formula_sum   'Cu2 Sb6'
_cell_volume   208.77674742
loop_
 _symmetry_equiv_pos_site_id
 _symmetry_equiv_pos_as_xyz
  1  'x, y, z'
loop_
 _atom_type_symbol
  Cu
  Sb
loop_
 _atom_site_type_symbol
 _atom_site_label
 _atom_site_symmetry_multiplicity
 _atom_site_fract_x
 _atom_site_fract_y
 _atom_site_fract_z
 _atom_site_occupancy
  Cu  Cu0  1  0.53106632  0.46893368  0.25000000  1
  Cu  Cu1  1  0.46893368  0.53106632  0.75000000  1
  Sb  Sb0  1  0.99602445  0.00397555  0.75000000  1
  Sb  Sb1  1  0.00397555  0.99602445  0.25000000  1
  Sb  Sb2  1  0.92483705  0.51923524  0.75000000  1
  Sb  Sb3  1  0.07516295  0.48076476  0.25000000  1
  Sb  Sb4  1  0.48076476  0.07516295  0.75000000  1
  Sb  Sb5  1  0.51923524  0.92483705  0.25000000  1
