# generated using pymatgen
data_3733_Ag5Pt7
_symmetry_space_group_name_H-M   'Pmm2'
_cell_length_a   2.81746859
_cell_length_b   5.68588475
_cell_length_c   12.28105216
_cell_angle_alpha   90.00000000
_cell_angle_beta   90.00000000
_cell_angle_gamma   90.00000000
_chemical_formula_structural   Ag5Pt7
_chemical_formula_sum   'Ag5 Pt7'
_cell_volume   196.74002014
loop_
 _symmetry_equiv_pos_site_id
 _symmetry_equiv_pos_as_xyz
  1  'x, y, z'
loop_
 _atom_type_symbol
  Ag
  Pt
loop_
 _atom_site_type_symbol
 _atom_site_label
 _atom_site_symmetry_multiplicity
 _atom_site_fract_x
 _atom_site_fract_y
 _atom_site_fract_z
 _atom_site_occupancy
  Ag  Ag0  1  0.00000000  0.00000000  0.99364751  1
  Ag  Ag1  1  0.50000000  0.24741656  0.16708752  1
  Ag  Ag2  1  0.00000000  0.50000000  0.33434537  1
  Ag  Ag3  1  0.00000000  0.00000000  0.66985763  1
  Ag  Ag4  1  0.50000000  0.75258344  0.16708752  1
  Pt  Pt0  1  0.50000000  0.74970622  0.50241810  1
  Pt  Pt1  1  0.50000000  0.25918653  0.83032323  1
  Pt  Pt2  1  0.00000000  0.50000000  0.99684392  1
  Pt  Pt3  1  0.00000000  0.00000000  0.34342662  1
  Pt  Pt4  1  0.50000000  0.25029378  0.50241810  1
  Pt  Pt5  1  0.00000000  0.50000000  0.66222124  1
  Pt  Pt6  1  0.50000000  0.74081347  0.83032323  1
