# generated using pymatgen
data_3735_Cs2Fe2
_symmetry_space_group_name_H-M   'P6_3/mmc'
_cell_length_a   6.17424493
_cell_length_b   6.17424493
_cell_length_c   7.58949963
_cell_angle_alpha   90.00000000
_cell_angle_beta   90.00000000
_cell_angle_gamma   119.99997615
_chemical_formula_structural   Cs2Fe2
_chemical_formula_sum   'Cs2 Fe2'
_cell_volume   250.55991232
loop_
 _symmetry_equiv_pos_site_id
 _symmetry_equiv_pos_as_xyz
  1  'x, y, z'
loop_
 _atom_type_symbol
  Cs
  Fe
loop_
 _atom_site_type_symbol
 _atom_site_label
 _atom_site_symmetry_multiplicity
 _atom_site_fract_x
 _atom_site_fract_y
 _atom_site_fract_z
 _atom_site_occupancy
  Cs  Cs0  1  0.00000000  0.00000000  0.93857729  1
  Cs  Cs1  1  0.33333343  0.66666662  0.43857803  1
  Fe  Fe0  1  0.00000000  0.00000000  0.43642217  1
  Fe  Fe1  1  0.33333343  0.66666662  0.93642291  1
