# generated using pymatgen
data_3737_CaP5
_symmetry_space_group_name_H-M   'P4/mmm'
_cell_length_a   3.87252328
_cell_length_b   3.87252328
_cell_length_c   7.52363325
_cell_angle_alpha   90.00000000
_cell_angle_beta   90.00000000
_cell_angle_gamma   90.00000000
_chemical_formula_structural   CaP5
_chemical_formula_sum   'Ca1 P5'
_cell_volume   112.82768869
loop_
 _symmetry_equiv_pos_site_id
 _symmetry_equiv_pos_as_xyz
  1  'x, y, z'
loop_
 _atom_type_symbol
  Ca
  P
loop_
 _atom_site_type_symbol
 _atom_site_label
 _atom_site_symmetry_multiplicity
 _atom_site_fract_x
 _atom_site_fract_y
 _atom_site_fract_z
 _atom_site_occupancy
  Ca  Ca0  1  0.50000000  0.50000000  0.00000000  1
  P  P0  1  0.00000000  0.00000000  0.84690409  1
  P  P1  1  0.00000000  0.00000000  0.15309591  1
  P  P2  1  0.50000000  0.50000000  0.63427293  1
  P  P3  1  0.50000000  0.50000000  0.36572707  1
  P  P4  1  0.00000000  0.00000000  0.50000000  1
