# generated using pymatgen
data_3738_Ag2Nb2
_symmetry_space_group_name_H-M   'Cmcm'
_cell_length_a   2.68882189
_cell_length_b   5.93009766
_cell_length_c   4.59099471
_cell_angle_alpha   90.00000000
_cell_angle_beta   90.00000000
_cell_angle_gamma   76.89656208
_chemical_formula_structural   Ag2Nb2
_chemical_formula_sum   'Ag2 Nb2'
_cell_volume   71.29726153
loop_
 _symmetry_equiv_pos_site_id
 _symmetry_equiv_pos_as_xyz
  1  'x, y, z'
loop_
 _atom_type_symbol
  Ag
  Nb
loop_
 _atom_site_type_symbol
 _atom_site_label
 _atom_site_symmetry_multiplicity
 _atom_site_fract_x
 _atom_site_fract_y
 _atom_site_fract_z
 _atom_site_occupancy
  Ag  Ag0  1  0.56407139  0.87185721  0.25000000  1
  Ag  Ag1  1  0.43592861  0.12814279  0.75000000  1
  Nb  Nb0  1  0.81780497  0.36439006  0.25000000  1
  Nb  Nb1  1  0.18219503  0.63560994  0.75000000  1
