# generated using pymatgen
data_3739_Ag2Nb
_symmetry_space_group_name_H-M   'Immm'
_cell_length_a   4.38961711
_cell_length_b   8.60678773
_cell_length_c   2.78826044
_cell_angle_alpha   90.00000000
_cell_angle_beta   90.00000000
_cell_angle_gamma   90.00000000
_chemical_formula_structural   Ag2Nb
_chemical_formula_sum   'Ag4 Nb2'
_cell_volume   105.34188103
loop_
 _symmetry_equiv_pos_site_id
 _symmetry_equiv_pos_as_xyz
  1  'x, y, z'
loop_
 _atom_type_symbol
  Ag
  Nb
loop_
 _atom_site_type_symbol
 _atom_site_label
 _atom_site_symmetry_multiplicity
 _atom_site_fract_x
 _atom_site_fract_y
 _atom_site_fract_z
 _atom_site_occupancy
  Ag  Ag0  1  0.99934015  0.33382193  0.00000000  1
  Ag  Ag1  1  0.50065985  0.83382193  0.50000000  1
  Ag  Ag2  1  0.49934015  0.16617807  0.50000000  1
  Ag  Ag3  1  0.00065985  0.66617807  0.00000000  1
  Nb  Nb0  1  0.00000000  0.00000000  0.00000000  1
  Nb  Nb1  1  0.50000000  0.50000000  0.50000000  1
