# generated using pymatgen
data_373_Mn8W16
_symmetry_space_group_name_H-M   'Fd -3 m'
_cell_length_a   7.93069934
_cell_length_b   7.93069934
_cell_length_c   7.93069934
_cell_angle_alpha   60.00000000
_cell_angle_beta   60.00000000
_cell_angle_gamma   60.00000000
_chemical_formula_structural   Mn8W16
_chemical_formula_sum   'Mn8 W16'
_cell_volume   352.71136900
loop_
 _symmetry_equiv_pos_site_id
 _symmetry_equiv_pos_as_xyz
  1  'x, y, z'
loop_
 _atom_type_symbol
  Mn
  W
loop_
 _atom_site_type_symbol
 _atom_site_label
 _atom_site_symmetry_multiplicity
 _atom_site_fract_x
 _atom_site_fract_y
 _atom_site_fract_z
 _atom_site_occupancy
  Mn  Mn0  1  0.71465856  0.85602431  0.71465856  1
  Mn  Mn1  1  0.35602431  0.21465856  0.71465856  1
  Mn  Mn2  1  0.71465856  0.21465856  0.35602431  1
  Mn  Mn3  1  0.71465856  0.21465856  0.71465856  1
  Mn  Mn4  1  0.28534144  0.14397569  0.28534144  1
  Mn  Mn5  1  0.64397569  0.78534144  0.28534144  1
  Mn  Mn6  1  0.28534144  0.78534144  0.64397569  1
  Mn  Mn7  1  0.28534144  0.78534144  0.28534144  1
  W  W0  1  0.50000000  0.00000000  0.50000000  1
  W  W1  1  0.50000000  0.00000000  0.00000000  1
  W  W2  1  0.00000000  0.00000000  0.50000000  1
  W  W3  1  0.50000000  0.50000000  0.50000000  1
  W  W4  1  0.31104102  0.81104102  0.93895898  1
  W  W5  1  0.93895898  0.81104102  0.31104102  1
  W  W6  1  0.93895898  0.81104102  0.93895898  1
  W  W7  1  0.31104102  0.43895898  0.31104102  1
  W  W8  1  0.31104102  0.43895898  0.93895898  1
  W  W9  1  0.93895898  0.43895898  0.31104102  1
  W  W10  1  0.68895898  0.18895898  0.06104102  1
  W  W11  1  0.06104102  0.18895898  0.68895898  1
  W  W12  1  0.06104102  0.18895898  0.06104102  1
  W  W13  1  0.68895898  0.56104102  0.68895898  1
  W  W14  1  0.68895898  0.56104102  0.06104102  1
  W  W15  1  0.06104102  0.56104102  0.68895898  1
