# generated using pymatgen
data_3741_GaTa2
_symmetry_space_group_name_H-M   'I4/mmm'
_cell_length_a   5.02310236
_cell_length_b   5.02310236
_cell_length_c   5.02310236
_cell_angle_alpha   139.99451724
_cell_angle_beta   139.99451724
_cell_angle_gamma   57.86162347
_chemical_formula_structural   GaTa2
_chemical_formula_sum   'Ga1 Ta2'
_cell_volume   51.91623202
loop_
 _symmetry_equiv_pos_site_id
 _symmetry_equiv_pos_as_xyz
  1  'x, y, z'
loop_
 _atom_type_symbol
  Ga
  Ta
loop_
 _atom_site_type_symbol
 _atom_site_label
 _atom_site_symmetry_multiplicity
 _atom_site_fract_x
 _atom_site_fract_y
 _atom_site_fract_z
 _atom_site_occupancy
  Ga  Ga0  1  0.00000000  0.00000000  0.00000000  1
  Ta  Ta0  1  0.66544658  0.66544658  0.00000000  1
  Ta  Ta1  1  0.33455342  0.33455342  0.00000000  1
