# generated using pymatgen
data_3748_Au4Nb2
_symmetry_space_group_name_H-M   'C2/m'
_cell_length_a   5.64227983
_cell_length_b   5.64227983
_cell_length_c   6.89228884
_cell_angle_alpha   74.80815908
_cell_angle_beta   74.80815908
_cell_angle_gamma   30.48991568
_chemical_formula_structural   Au4Nb2
_chemical_formula_sum   'Au4 Nb2'
_cell_volume   107.14472736
loop_
 _symmetry_equiv_pos_site_id
 _symmetry_equiv_pos_as_xyz
  1  'x, y, z'
loop_
 _atom_type_symbol
  Au
  Nb
loop_
 _atom_site_type_symbol
 _atom_site_label
 _atom_site_symmetry_multiplicity
 _atom_site_fract_x
 _atom_site_fract_y
 _atom_site_fract_z
 _atom_site_occupancy
  Au  Au0  1  0.81235250  0.81235250  0.12849412  1
  Au  Au1  1  0.18764750  0.18764750  0.87150588  1
  Au  Au2  1  0.86193275  0.86193275  0.53465034  1
  Au  Au3  1  0.13806725  0.13806725  0.46534966  1
  Nb  Nb0  1  0.47556562  0.47556562  0.80719201  1
  Nb  Nb1  1  0.52443438  0.52443438  0.19280799  1
