# generated using pymatgen
data_3751_Ag8K4
_symmetry_space_group_name_H-M   'P6_3/mmc'
_cell_length_a   5.78037998
_cell_length_b   5.78038503
_cell_length_c   9.79657295
_cell_angle_alpha   90.00000000
_cell_angle_beta   90.00000000
_cell_angle_gamma   119.99997109
_chemical_formula_structural   Ag8K4
_chemical_formula_sum   'Ag8 K4'
_cell_volume   283.47717166
loop_
 _symmetry_equiv_pos_site_id
 _symmetry_equiv_pos_as_xyz
  1  'x, y, z'
loop_
 _atom_type_symbol
  Ag
  K
loop_
 _atom_site_type_symbol
 _atom_site_label
 _atom_site_symmetry_multiplicity
 _atom_site_fract_x
 _atom_site_fract_y
 _atom_site_fract_z
 _atom_site_occupancy
  Ag  Ag0  1  0.00000000  0.00000000  0.00000000  1
  Ag  Ag1  1  0.33319273  0.16658392  0.25000000  1
  Ag  Ag2  1  0.83339119  0.16658392  0.25000000  1
  Ag  Ag3  1  0.83339912  0.66679825  0.25000000  1
  Ag  Ag4  1  0.00000000  0.00000000  0.50000000  1
  Ag  Ag5  1  0.16660088  0.33320175  0.75000000  1
  Ag  Ag6  1  0.16660881  0.83341608  0.75000000  1
  Ag  Ag7  1  0.66680727  0.83341608  0.75000000  1
  K  K0  1  0.33333260  0.66666520  0.06133940  1
  K  K1  1  0.33333260  0.66666520  0.43866060  1
  K  K2  1  0.66666740  0.33333480  0.56133940  1
  K  K3  1  0.66666740  0.33333480  0.93866060  1
