# generated using pymatgen
data_3757_Cr2Bi2
_symmetry_space_group_name_H-M   'P6_3mc'
_cell_length_a   4.47166517
_cell_length_b   4.47166517
_cell_length_c   7.21845858
_cell_angle_alpha   90.00000000
_cell_angle_beta   90.00000000
_cell_angle_gamma   119.99995139
_chemical_formula_structural   Cr2Bi2
_chemical_formula_sum   'Bi2 Cr2'
_cell_volume   125.00110955
loop_
 _symmetry_equiv_pos_site_id
 _symmetry_equiv_pos_as_xyz
  1  'x, y, z'
loop_
 _atom_type_symbol
  Bi
  Cr
loop_
 _atom_site_type_symbol
 _atom_site_label
 _atom_site_symmetry_multiplicity
 _atom_site_fract_x
 _atom_site_fract_y
 _atom_site_fract_z
 _atom_site_occupancy
  Bi  Bi0  1  0.33333330  0.66666764  0.49852131  1
  Bi  Bi1  1  0.00000000  0.00000000  0.99849302  1
  Cr  Cr0  1  0.00000000  0.00000000  0.37649860  1
  Cr  Cr1  1  0.33333330  0.66666764  0.87648744  1
