# generated using pymatgen
data_376_Mo3Sr
_symmetry_space_group_name_H-M   'Cmmm'
_cell_length_a   2.87769299
_cell_length_b   2.87769299
_cell_length_c   9.84367930
_cell_angle_alpha   90.00000000
_cell_angle_beta   90.00000000
_cell_angle_gamma   109.59942224
_chemical_formula_structural   Mo3Sr
_chemical_formula_sum   'Mo3 Sr1'
_cell_volume   76.79365216
loop_
 _symmetry_equiv_pos_site_id
 _symmetry_equiv_pos_as_xyz
  1  'x, y, z'
loop_
 _atom_type_symbol
  Mo
  Sr
loop_
 _atom_site_type_symbol
 _atom_site_label
 _atom_site_symmetry_multiplicity
 _atom_site_fract_x
 _atom_site_fract_y
 _atom_site_fract_z
 _atom_site_occupancy
  Mo  Mo0  1  0.00000000  0.00000000  0.96084973  1
  Mo  Mo1  1  0.50000000  0.50000000  0.75000000  1
  Mo  Mo2  1  0.00000000  0.00000000  0.53915027  1
  Sr  Sr0  1  0.50000000  0.50000000  0.25000000  1
