# generated using pymatgen
data_3772_Mo10Ge6
_symmetry_space_group_name_H-M   'P6_3/mcm'
_cell_length_a   7.44796016
_cell_length_b   7.44796028
_cell_length_c   5.15044900
_cell_angle_alpha   90.00000000
_cell_angle_beta   90.00000000
_cell_angle_gamma   119.97638564
_chemical_formula_structural   Mo10Ge6
_chemical_formula_sum   'Ge6 Mo10'
_cell_volume   247.48775272
loop_
 _symmetry_equiv_pos_site_id
 _symmetry_equiv_pos_as_xyz
  1  'x, y, z'
loop_
 _atom_type_symbol
  Ge
  Mo
loop_
 _atom_site_type_symbol
 _atom_site_label
 _atom_site_symmetry_multiplicity
 _atom_site_fract_x
 _atom_site_fract_y
 _atom_site_fract_z
 _atom_site_occupancy
  Ge  Ge0  1  0.60550789  0.99995669  0.24999954  1
  Ge  Ge1  1  0.99995592  0.60550714  0.24999954  1
  Ge  Ge2  1  0.39450638  0.39450594  0.25000148  1
  Ge  Ge3  1  0.39449245  0.00004410  0.74999862  1
  Ge  Ge4  1  0.00004419  0.39449283  0.74999862  1
  Ge  Ge5  1  0.60549407  0.60549483  0.75000056  1
  Mo  Mo0  1  0.66666622  0.33333333  0.00000000  1
  Mo  Mo1  1  0.33333345  0.66666588  0.00000000  1
  Mo  Mo2  1  0.23092948  0.00001171  0.24999760  1
  Mo  Mo3  1  0.00001201  0.23092937  0.24999760  1
  Mo  Mo4  1  0.76899922  0.76899924  0.25000342  1
  Mo  Mo5  1  0.66666700  0.33333488  0.49999908  1
  Mo  Mo6  1  0.33333345  0.66666588  0.49999908  1
  Mo  Mo7  1  0.76907086  0.99998908  0.74999862  1
  Mo  Mo8  1  0.99998811  0.76907061  0.74999862  1
  Mo  Mo9  1  0.23100046  0.23099997  0.75000444  1
