# generated using pymatgen
data_3773_Ge2P2
_symmetry_space_group_name_H-M   'C2/m'
_cell_length_a   5.64481509
_cell_length_b   5.69249674
_cell_length_c   2.83845250
_cell_angle_alpha   75.56300403
_cell_angle_beta   75.43837189
_cell_angle_gamma   52.30913720
_chemical_formula_structural   Ge2P2
_chemical_formula_sum   'Ge2 P2'
_cell_volume   69.31031168
loop_
 _symmetry_equiv_pos_site_id
 _symmetry_equiv_pos_as_xyz
  1  'x, y, z'
loop_
 _atom_type_symbol
  Ge
  P
loop_
 _atom_site_type_symbol
 _atom_site_label
 _atom_site_symmetry_multiplicity
 _atom_site_fract_x
 _atom_site_fract_y
 _atom_site_fract_z
 _atom_site_occupancy
  Ge  Ge0  1  0.00297126  0.00277119  0.99712877  1
  Ge  Ge1  1  0.91369541  0.58056214  0.75287123  1
  P  P0  1  0.50248681  0.50187287  0.49782016  1
  P  P1  1  0.41417986  0.08146046  0.25217984  1
