# generated using pymatgen
data_377_Au3Nb
_symmetry_space_group_name_H-M   'Pmmm'
_cell_length_a   8.48528223
_cell_length_b   4.00626650
_cell_length_c   10.65688186
_cell_angle_alpha   90.00000000
_cell_angle_beta   168.52737862
_cell_angle_gamma   90.00000000
_chemical_formula_structural   Au3Nb
_chemical_formula_sum   'Au3 Nb1'
_cell_volume   72.05602723
loop_
 _symmetry_equiv_pos_site_id
 _symmetry_equiv_pos_as_xyz
  1  'x, y, z'
loop_
 _atom_type_symbol
  Au
  Nb
loop_
 _atom_site_type_symbol
 _atom_site_label
 _atom_site_symmetry_multiplicity
 _atom_site_fract_x
 _atom_site_fract_y
 _atom_site_fract_z
 _atom_site_occupancy
  Au  Au0  1  0.03780734  1.00000000  0.02783623  1
  Au  Au1  1  0.46219266  1.00000000  0.97216377  1
  Au  Au2  1  0.75000000  0.50000000  1.00000000  1
  Nb  Nb0  1  0.25000000  0.50000000  0.00000000  1
