# generated using pymatgen
data_3780_AgBa
_symmetry_space_group_name_H-M   'P4/mmm'
_cell_length_a   5.78027262
_cell_length_b   5.78027262
_cell_length_c   4.20070130
_cell_angle_alpha   90.00000000
_cell_angle_beta   90.00000000
_cell_angle_gamma   90.00000000
_chemical_formula_structural   AgBa
_chemical_formula_sum   'Ag2 Ba2'
_cell_volume   140.35194808
loop_
 _symmetry_equiv_pos_site_id
 _symmetry_equiv_pos_as_xyz
  1  'x, y, z'
loop_
 _atom_type_symbol
  Ag
  Ba
loop_
 _atom_site_type_symbol
 _atom_site_label
 _atom_site_symmetry_multiplicity
 _atom_site_fract_x
 _atom_site_fract_y
 _atom_site_fract_z
 _atom_site_occupancy
  Ag  Ag0  1  0.25000000  0.75000000  0.00000000  1
  Ag  Ag1  1  0.75000000  0.25000000  0.00000000  1
  Ba  Ba0  1  0.25000000  0.25000000  0.51026960  1
  Ba  Ba1  1  0.75000000  0.75000000  0.48973040  1
