# generated using pymatgen
data_3782_Ga6Sb2
_symmetry_space_group_name_H-M   'Cmcm'
_cell_length_a   6.85690562
_cell_length_b   6.85690562
_cell_length_c   4.97675505
_cell_angle_alpha   90.00000000
_cell_angle_beta   90.00000000
_cell_angle_gamma   115.29786689
_chemical_formula_structural   Ga6Sb2
_chemical_formula_sum   'Ga6 Sb2'
_cell_volume   211.55258593
loop_
 _symmetry_equiv_pos_site_id
 _symmetry_equiv_pos_as_xyz
  1  'x, y, z'
loop_
 _atom_type_symbol
  Ga
  Sb
loop_
 _atom_site_type_symbol
 _atom_site_label
 _atom_site_symmetry_multiplicity
 _atom_site_fract_x
 _atom_site_fract_y
 _atom_site_fract_z
 _atom_site_occupancy
  Ga  Ga0  1  0.91749813  0.08250187  0.75000000  1
  Ga  Ga1  1  0.08250187  0.91749813  0.25000000  1
  Ga  Ga2  1  0.01061472  0.64510644  0.75000000  1
  Ga  Ga3  1  0.98938528  0.35489356  0.25000000  1
  Ga  Ga4  1  0.35489356  0.98938528  0.75000000  1
  Ga  Ga5  1  0.64510644  0.01061472  0.25000000  1
  Sb  Sb0  1  0.44563892  0.55436108  0.25000000  1
  Sb  Sb1  1  0.55436108  0.44563892  0.75000000  1
