# generated using pymatgen
data_3783_GaSb3
_symmetry_space_group_name_H-M   'Immm'
_cell_length_a   6.12916112
_cell_length_b   6.12916112
_cell_length_c   6.12916112
_cell_angle_alpha   144.18124221
_cell_angle_beta   129.72521015
_cell_angle_gamma   63.25769157
_chemical_formula_structural   GaSb3
_chemical_formula_sum   'Ga1 Sb3'
_cell_volume   102.43919668
loop_
 _symmetry_equiv_pos_site_id
 _symmetry_equiv_pos_as_xyz
  1  'x, y, z'
loop_
 _atom_type_symbol
  Ga
  Sb
loop_
 _atom_site_type_symbol
 _atom_site_label
 _atom_site_symmetry_multiplicity
 _atom_site_fract_x
 _atom_site_fract_y
 _atom_site_fract_z
 _atom_site_occupancy
  Ga  Ga0  1  0.00000000  0.00000000  0.00000000  1
  Sb  Sb0  1  0.74814341  0.24814341  0.50000000  1
  Sb  Sb1  1  0.50000000  0.50000000  1.00000000  1
  Sb  Sb2  1  0.25185659  0.75185659  0.50000000  1
