# generated using pymatgen
data_3791_Fe3Na
_symmetry_space_group_name_H-M   'Pmmm'
_cell_length_a   3.41727390
_cell_length_b   2.45617471
_cell_length_c   7.14055140
_cell_angle_alpha   69.83922791
_cell_angle_beta   90.00000000
_cell_angle_gamma   90.00000000
_chemical_formula_structural   Fe3Na
_chemical_formula_sum   'Fe3 Na1'
_cell_volume   56.26147685
loop_
 _symmetry_equiv_pos_site_id
 _symmetry_equiv_pos_as_xyz
  1  'x, y, z'
loop_
 _atom_type_symbol
  Fe
  Na
loop_
 _atom_site_type_symbol
 _atom_site_label
 _atom_site_symmetry_multiplicity
 _atom_site_fract_x
 _atom_site_fract_y
 _atom_site_fract_z
 _atom_site_occupancy
  Fe  Fe0  1  0.00000000  0.07585503  0.91718626  1
  Fe  Fe1  1  0.50000000  0.75000000  0.75000000  1
  Fe  Fe2  1  0.00000000  0.42414497  0.58281374  1
  Na  Na0  1  0.50000000  0.25000000  0.25000000  1
