# generated using pymatgen
data_3792_Cu2W
_symmetry_space_group_name_H-M   'Immm'
_cell_length_a   3.82022046
_cell_length_b   7.23075324
_cell_length_c   2.72871016
_cell_angle_alpha   90.00000000
_cell_angle_beta   90.00000000
_cell_angle_gamma   90.00000000
_chemical_formula_structural   Cu2W
_chemical_formula_sum   'Cu4 W2'
_cell_volume   75.37535577
loop_
 _symmetry_equiv_pos_site_id
 _symmetry_equiv_pos_as_xyz
  1  'x, y, z'
loop_
 _atom_type_symbol
  Cu
  W
loop_
 _atom_site_type_symbol
 _atom_site_label
 _atom_site_symmetry_multiplicity
 _atom_site_fract_x
 _atom_site_fract_y
 _atom_site_fract_z
 _atom_site_occupancy
  Cu  Cu0  1  0.00537961  0.32867037  0.00000000  1
  Cu  Cu1  1  0.99462039  0.67132963  0.00000000  1
  Cu  Cu2  1  0.50537961  0.17132963  0.50000000  1
  Cu  Cu3  1  0.49462039  0.82867037  0.50000000  1
  W  W0  1  0.00000000  0.00000000  0.00000000  1
  W  W1  1  0.50000000  0.50000000  0.50000000  1
