# generated using pymatgen
data_3799_Ga2Ta6
_symmetry_space_group_name_H-M   'Pmmn'
_cell_length_a   4.71760122
_cell_length_b   5.34645785
_cell_length_c   5.56337748
_cell_angle_alpha   90.00000000
_cell_angle_beta   90.00000000
_cell_angle_gamma   90.00000000
_chemical_formula_structural   Ga2Ta6
_chemical_formula_sum   'Ga2 Ta6'
_cell_volume   140.32204412
loop_
 _symmetry_equiv_pos_site_id
 _symmetry_equiv_pos_as_xyz
  1  'x, y, z'
loop_
 _atom_type_symbol
  Ga
  Ta
loop_
 _atom_site_type_symbol
 _atom_site_label
 _atom_site_symmetry_multiplicity
 _atom_site_fract_x
 _atom_site_fract_y
 _atom_site_fract_z
 _atom_site_occupancy
  Ga  Ga0  1  0.00000000  0.33742095  0.00000000  1
  Ga  Ga1  1  0.50000000  0.66257905  0.50000000  1
  Ta  Ta0  1  0.50000000  0.62455337  0.00000000  1
  Ta  Ta1  1  0.00000000  0.37544663  0.50000000  1
  Ta  Ta2  1  0.00000000  0.85075534  0.24206021  1
  Ta  Ta3  1  0.00000000  0.85075534  0.75793979  1
  Ta  Ta4  1  0.50000000  0.14924466  0.74206021  1
  Ta  Ta5  1  0.50000000  0.14924466  0.25793979  1
