# generated using pymatgen
data_37_AlMn
_symmetry_space_group_name_H-M   'P-6m2'
_cell_length_a   2.70078649
_cell_length_b   2.70078269
_cell_length_c   4.10951092
_cell_angle_alpha   90.00000000
_cell_angle_beta   90.00000000
_cell_angle_gamma   120.00004637
_chemical_formula_structural   AlMn
_chemical_formula_sum   'Al1 Mn1'
_cell_volume   25.95974739
loop_
 _symmetry_equiv_pos_site_id
 _symmetry_equiv_pos_as_xyz
  1  'x, y, z'
loop_
 _atom_type_symbol
  Al
  Mn
loop_
 _atom_site_type_symbol
 _atom_site_label
 _atom_site_symmetry_multiplicity
 _atom_site_fract_x
 _atom_site_fract_y
 _atom_site_fract_z
 _atom_site_occupancy
  Al  Al0  1  0.66666750  0.33333400  0.75000000  1
  Mn  Mn0  1  0.33333250  0.66666600  0.25000000  1
