# generated using pymatgen
data_3800_Pt3Bi
_symmetry_space_group_name_H-M   'I4/mmm'
_cell_length_a   5.22061169
_cell_length_b   5.22061169
_cell_length_c   5.22061169
_cell_angle_alpha   133.66249198
_cell_angle_beta   133.66249198
_cell_angle_gamma   67.61564169
_chemical_formula_structural   Pt3Bi
_chemical_formula_sum   'Bi1 Pt3'
_cell_volume   73.20415627
loop_
 _symmetry_equiv_pos_site_id
 _symmetry_equiv_pos_as_xyz
  1  'x, y, z'
loop_
 _atom_type_symbol
  Bi
  Pt
loop_
 _atom_site_type_symbol
 _atom_site_label
 _atom_site_symmetry_multiplicity
 _atom_site_fract_x
 _atom_site_fract_y
 _atom_site_fract_z
 _atom_site_occupancy
  Bi  Bi0  1  0.00000000  0.00000000  0.00000000  1
  Pt  Pt0  1  0.50000000  0.50000000  0.00000000  1
  Pt  Pt1  1  0.75000000  0.25000000  0.50000000  1
  Pt  Pt2  1  0.25000000  0.75000000  0.50000000  1
