# generated using pymatgen
data_3802_NaBr5
_symmetry_space_group_name_H-M   'Cmmm'
_cell_length_a   12.41707710
_cell_length_b   12.41707710
_cell_length_c   4.03950905
_cell_angle_alpha   90.00000000
_cell_angle_beta   90.00000000
_cell_angle_gamma   161.05211406
_chemical_formula_structural   NaBr5
_chemical_formula_sum   'Br5 Na1'
_cell_volume   202.23687491
loop_
 _symmetry_equiv_pos_site_id
 _symmetry_equiv_pos_as_xyz
  1  'x, y, z'
loop_
 _atom_type_symbol
  Br
  Na
loop_
 _atom_site_type_symbol
 _atom_site_label
 _atom_site_symmetry_multiplicity
 _atom_site_fract_x
 _atom_site_fract_y
 _atom_site_fract_z
 _atom_site_occupancy
  Br  Br0  1  0.19289814  0.80710186  0.50000000  1
  Br  Br1  1  0.36259149  0.63740851  0.00000000  1
  Br  Br2  1  0.52775097  0.47224903  0.50000000  1
  Br  Br3  1  0.69295137  0.30704863  0.00000000  1
  Br  Br4  1  0.86265137  0.13734863  0.50000000  1
  Na  Na0  1  0.02782332  0.97217668  0.00000000  1
