# generated using pymatgen
data_3805_FeSn
_symmetry_space_group_name_H-M   'R -3 m'
_cell_length_a   4.51610911
_cell_length_b   4.51610911
_cell_length_c   4.51610910
_cell_angle_alpha   40.43785026
_cell_angle_beta   40.43785026
_cell_angle_gamma   40.43784226
_chemical_formula_structural   FeSn
_chemical_formula_sum   'Fe1 Sn1'
_cell_volume   34.94481168
loop_
 _symmetry_equiv_pos_site_id
 _symmetry_equiv_pos_as_xyz
  1  'x, y, z'
loop_
 _atom_type_symbol
  Fe
  Sn
loop_
 _atom_site_type_symbol
 _atom_site_label
 _atom_site_symmetry_multiplicity
 _atom_site_fract_x
 _atom_site_fract_y
 _atom_site_fract_z
 _atom_site_occupancy
  Fe  Fe0  1  0.00000000  0.00000000  0.00000000  1
  Sn  Sn0  1  0.50000000  0.50000000  0.50000000  1
