# generated using pymatgen
data_3807_Pd6Sr2
_symmetry_space_group_name_H-M   'Cmcm'
_cell_length_a   6.21652628
_cell_length_b   6.21652628
_cell_length_c   4.68698731
_cell_angle_alpha   90.00000000
_cell_angle_beta   90.00000000
_cell_angle_gamma   117.33609316
_chemical_formula_structural   Pd6Sr2
_chemical_formula_sum   'Pd6 Sr2'
_cell_volume   160.90248128
loop_
 _symmetry_equiv_pos_site_id
 _symmetry_equiv_pos_as_xyz
  1  'x, y, z'
loop_
 _atom_type_symbol
  Pd
  Sr
loop_
 _atom_site_type_symbol
 _atom_site_label
 _atom_site_symmetry_multiplicity
 _atom_site_fract_x
 _atom_site_fract_y
 _atom_site_fract_z
 _atom_site_occupancy
  Pd  Pd0  1  0.15612638  0.84387362  0.75000000  1
  Pd  Pd1  1  0.84387362  0.15612638  0.25000000  1
  Pd  Pd2  1  0.70745328  0.86171107  0.75000000  1
  Pd  Pd3  1  0.29254672  0.13828893  0.25000000  1
  Pd  Pd4  1  0.86171107  0.70745328  0.25000000  1
  Pd  Pd5  1  0.13828893  0.29254672  0.75000000  1
  Sr  Sr0  1  0.65858807  0.34141193  0.75000000  1
  Sr  Sr1  1  0.34141193  0.65858807  0.25000000  1
