# generated using pymatgen
data_3808_In3W
_symmetry_space_group_name_H-M   'C2/m'
_cell_length_a   5.54997910
_cell_length_b   5.54997910
_cell_length_c   5.26291305
_cell_angle_alpha   82.68040825
_cell_angle_beta   82.68040825
_cell_angle_gamma   31.42395871
_chemical_formula_structural   In3W
_chemical_formula_sum   'In3 W1'
_cell_volume   83.77505185
loop_
 _symmetry_equiv_pos_site_id
 _symmetry_equiv_pos_as_xyz
  1  'x, y, z'
loop_
 _atom_type_symbol
  In
  W
loop_
 _atom_site_type_symbol
 _atom_site_label
 _atom_site_symmetry_multiplicity
 _atom_site_fract_x
 _atom_site_fract_y
 _atom_site_fract_z
 _atom_site_occupancy
  In  In0  1  0.50000000  0.50000000  0.50000000  1
  In  In1  1  0.73466426  0.73466426  0.76447603  1
  In  In2  1  0.26533574  0.26533574  0.23552397  1
  W  W0  1  0.00000000  0.00000000  0.00000000  1
