# generated using pymatgen
data_3811_Ag2Sn2
_symmetry_space_group_name_H-M   'P4/nmm'
_cell_length_a   3.22407265
_cell_length_b   3.22407265
_cell_length_c   8.63330414
_cell_angle_alpha   90.00000000
_cell_angle_beta   90.00000000
_cell_angle_gamma   90.00000000
_chemical_formula_structural   Ag2Sn2
_chemical_formula_sum   'Ag2 Sn2'
_cell_volume   89.74012699
loop_
 _symmetry_equiv_pos_site_id
 _symmetry_equiv_pos_as_xyz
  1  'x, y, z'
loop_
 _atom_type_symbol
  Ag
  Sn
loop_
 _atom_site_type_symbol
 _atom_site_label
 _atom_site_symmetry_multiplicity
 _atom_site_fract_x
 _atom_site_fract_y
 _atom_site_fract_z
 _atom_site_occupancy
  Ag  Ag0  1  0.00000000  0.00000000  0.98020655  1
  Ag  Ag1  1  0.50000000  0.50000000  0.76979345  1
  Sn  Sn0  1  0.00000000  0.00000000  0.53364963  1
  Sn  Sn1  1  0.50000000  0.50000000  0.21635037  1
