# generated using pymatgen
data_3813_Cu24As8
_symmetry_space_group_name_H-M   'I-43d'
_cell_length_a   8.34627956
_cell_length_b   8.34627956
_cell_length_c   8.34627956
_cell_angle_alpha   109.47122063
_cell_angle_beta   109.47122063
_cell_angle_gamma   109.47122063
_chemical_formula_structural   Cu24As8
_chemical_formula_sum   'As8 Cu24'
_cell_volume   447.56579792
loop_
 _symmetry_equiv_pos_site_id
 _symmetry_equiv_pos_as_xyz
  1  'x, y, z'
loop_
 _atom_type_symbol
  As
  Cu
loop_
 _atom_site_type_symbol
 _atom_site_label
 _atom_site_symmetry_multiplicity
 _atom_site_fract_x
 _atom_site_fract_y
 _atom_site_fract_z
 _atom_site_occupancy
  As  As0  1  0.06074546  0.00000000  0.00000000  1
  As  As1  1  0.43925454  0.43925454  0.93925454  1
  As  As2  1  0.50000000  0.06074546  0.50000000  1
  As  As3  1  0.00000000  0.50000000  0.56074546  1
  As  As4  1  0.56074546  0.00000000  0.00000000  1
  As  As5  1  0.93925454  0.93925454  0.43925454  1
  As  As6  1  1.00000000  0.50000000  0.06074546  1
  As  As7  1  0.50000000  0.56074546  0.50000000  1
  Cu  Cu0  1  0.90956230  0.06953364  0.21737396  1
  Cu  Cu1  1  0.59043770  0.80781166  0.15997134  1
  Cu  Cu2  1  0.35215967  0.69218834  0.28262604  1
  Cu  Cu3  1  0.14784033  0.43046636  0.34002866  1
  Cu  Cu4  1  0.84002866  0.14784033  0.93046636  1
  Cu  Cu5  1  0.78262604  0.35215967  0.19218834  1
  Cu  Cu6  1  0.65997134  0.59043770  0.30781166  1
  Cu  Cu7  1  0.71737396  0.90956230  0.56953364  1
  Cu  Cu8  1  0.69218834  0.78262604  0.85215967  1
  Cu  Cu9  1  0.43046636  0.84002866  0.64784033  1
  Cu  Cu10  1  0.06953364  0.71737396  0.40956230  1
  Cu  Cu11  1  0.80781166  0.65997134  0.09043770  1
  Cu  Cu12  1  0.40956230  0.21737396  0.06953364  1
  Cu  Cu13  1  0.09043770  0.15997134  0.80781166  1
  Cu  Cu14  1  0.85215967  0.28262604  0.69218834  1
  Cu  Cu15  1  0.64784033  0.34002866  0.43046636  1
  Cu  Cu16  1  0.34002866  0.93046636  0.14784033  1
  Cu  Cu17  1  0.28262604  0.19218834  0.35215967  1
  Cu  Cu18  1  0.15997134  0.30781166  0.59043770  1
  Cu  Cu19  1  0.21737396  0.56953364  0.90956230  1
  Cu  Cu20  1  0.19218834  0.85215967  0.78262604  1
  Cu  Cu21  1  0.93046636  0.64784033  0.84002866  1
  Cu  Cu22  1  0.56953364  0.40956230  0.71737396  1
  Cu  Cu23  1  0.30781166  0.09043770  0.65997134  1
