# generated using pymatgen
data_3815_FeMo3
_symmetry_space_group_name_H-M   'Immm'
_cell_length_a   5.06402436
_cell_length_b   5.06402436
_cell_length_c   5.06402436
_cell_angle_alpha   143.75933802
_cell_angle_beta   128.80999651
_cell_angle_gamma   64.32405500
_chemical_formula_structural   FeMo3
_chemical_formula_sum   'Fe1 Mo3'
_cell_volume   59.08379109
loop_
 _symmetry_equiv_pos_site_id
 _symmetry_equiv_pos_as_xyz
  1  'x, y, z'
loop_
 _atom_type_symbol
  Fe
  Mo
loop_
 _atom_site_type_symbol
 _atom_site_label
 _atom_site_symmetry_multiplicity
 _atom_site_fract_x
 _atom_site_fract_y
 _atom_site_fract_z
 _atom_site_occupancy
  Fe  Fe0  1  0.50000000  0.00000000  0.50000000  1
  Mo  Mo0  1  0.24606915  0.24606915  0.00000000  1
  Mo  Mo1  1  0.75393085  0.75393085  0.00000000  1
  Mo  Mo2  1  0.00000000  0.50000000  0.50000000  1
