# generated using pymatgen
data_3816_Mo2Na
_symmetry_space_group_name_H-M   'I4/mmm'
_cell_length_a   6.50811929
_cell_length_b   6.50811929
_cell_length_c   6.50811929
_cell_angle_alpha   151.50813783
_cell_angle_beta   151.50813783
_cell_angle_gamma   40.73202338
_chemical_formula_structural   Mo2Na
_chemical_formula_sum   'Mo2 Na1'
_cell_volume   62.59806144
loop_
 _symmetry_equiv_pos_site_id
 _symmetry_equiv_pos_as_xyz
  1  'x, y, z'
loop_
 _atom_type_symbol
  Mo
  Na
loop_
 _atom_site_type_symbol
 _atom_site_label
 _atom_site_symmetry_multiplicity
 _atom_site_fract_x
 _atom_site_fract_y
 _atom_site_fract_z
 _atom_site_occupancy
  Mo  Mo0  1  0.03547944  0.03547944  0.00000000  1
  Mo  Mo1  1  0.63118722  0.63118722  0.00000000  1
  Na  Na0  1  0.33333333  0.33333333  0.00000000  1
