# generated using pymatgen
data_3817_Na2Rh4
_symmetry_space_group_name_H-M   'Cmcm'
_cell_length_a   8.34739378
_cell_length_b   8.34739378
_cell_length_c   4.44904542
_cell_angle_alpha   90.00000000
_cell_angle_beta   90.00000000
_cell_angle_gamma   161.08973974
_chemical_formula_structural   Na2Rh4
_chemical_formula_sum   'Na2 Rh4'
_cell_volume   100.46852586
loop_
 _symmetry_equiv_pos_site_id
 _symmetry_equiv_pos_as_xyz
  1  'x, y, z'
loop_
 _atom_type_symbol
  Na
  Rh
loop_
 _atom_site_type_symbol
 _atom_site_label
 _atom_site_symmetry_multiplicity
 _atom_site_fract_x
 _atom_site_fract_y
 _atom_site_fract_z
 _atom_site_occupancy
  Na  Na0  1  0.01555916  0.98444084  0.00000000  1
  Na  Na1  1  0.42888529  0.57111471  0.50000000  1
  Rh  Rh0  1  0.31550191  0.68449809  0.00000000  1
  Rh  Rh1  1  0.67548345  0.32451655  0.00000000  1
  Rh  Rh2  1  0.76896099  0.23103901  0.50000000  1
  Rh  Rh3  1  0.12894253  0.87105747  0.50000000  1
