# generated using pymatgen
data_3818_FeP5
_symmetry_space_group_name_H-M   'Amm2'
_cell_length_a   6.69014100
_cell_length_b   6.69014100
_cell_length_c   4.12568549
_cell_angle_alpha   90.00000000
_cell_angle_beta   90.00000000
_cell_angle_gamma   149.03396459
_chemical_formula_structural   FeP5
_chemical_formula_sum   'Fe1 P5'
_cell_volume   95.01173400
loop_
 _symmetry_equiv_pos_site_id
 _symmetry_equiv_pos_as_xyz
  1  'x, y, z'
loop_
 _atom_type_symbol
  Fe
  P
loop_
 _atom_site_type_symbol
 _atom_site_label
 _atom_site_symmetry_multiplicity
 _atom_site_fract_x
 _atom_site_fract_y
 _atom_site_fract_z
 _atom_site_occupancy
  Fe  Fe0  1  0.02434211  0.97565789  0.00000000  1
  P  P0  1  0.71999535  0.28000465  0.50000000  1
  P  P1  1  0.63115040  0.36884960  0.00000000  1
  P  P2  1  0.46580939  0.53419061  0.50000000  1
  P  P3  1  0.39047406  0.60952594  0.00000000  1
  P  P4  1  0.10156203  0.89843797  0.50000000  1
