# generated using pymatgen
data_3819_P2As4
_symmetry_space_group_name_H-M   'Cmcm'
_cell_length_a   9.42871828
_cell_length_b   9.42871828
_cell_length_c   3.48083537
_cell_angle_alpha   90.00000000
_cell_angle_beta   90.00000000
_cell_angle_gamma   158.31519305
_chemical_formula_structural   P2As4
_chemical_formula_sum   'As4 P2'
_cell_volume   114.34144518
loop_
 _symmetry_equiv_pos_site_id
 _symmetry_equiv_pos_as_xyz
  1  'x, y, z'
loop_
 _atom_type_symbol
  As
  P
loop_
 _atom_site_type_symbol
 _atom_site_label
 _atom_site_symmetry_multiplicity
 _atom_site_fract_x
 _atom_site_fract_y
 _atom_site_fract_z
 _atom_site_occupancy
  As  As0  1  0.00589700  0.99410300  0.00000000  1
  As  As1  1  0.66196567  0.33803433  0.00000000  1
  As  As2  1  0.43854744  0.56145256  0.50000000  1
  As  As3  1  0.78247877  0.21752123  0.50000000  1
  P  P0  1  0.33252672  0.66747328  0.00000000  1
  P  P1  1  0.11191772  0.88808228  0.50000000  1
