# generated using pymatgen
data_3820_Al3Fe
_symmetry_space_group_name_H-M   'I4/mmm'
_cell_length_a   4.65904313
_cell_length_b   4.65904313
_cell_length_c   4.65904313
_cell_angle_alpha   132.15571175
_cell_angle_beta   132.15571175
_cell_angle_gamma   69.98320801
_chemical_formula_structural   Al3Fe
_chemical_formula_sum   'Al3 Fe1'
_cell_volume   54.49166285
loop_
 _symmetry_equiv_pos_site_id
 _symmetry_equiv_pos_as_xyz
  1  'x, y, z'
loop_
 _atom_type_symbol
  Al
  Fe
loop_
 _atom_site_type_symbol
 _atom_site_label
 _atom_site_symmetry_multiplicity
 _atom_site_fract_x
 _atom_site_fract_y
 _atom_site_fract_z
 _atom_site_occupancy
  Al  Al0  1  0.25000000  0.75000000  0.50000000  1
  Al  Al1  1  0.50000000  0.50000000  0.00000000  1
  Al  Al2  1  0.75000000  0.25000000  0.50000000  1
  Fe  Fe0  1  0.00000000  0.00000000  0.00000000  1
