# generated using pymatgen
data_3822_Mn6Ta10
_symmetry_space_group_name_H-M   'I4/mcm'
_cell_length_a   5.04486923
_cell_length_b   7.47560167
_cell_length_c   7.47327372
_cell_angle_alpha   96.53267177
_cell_angle_beta   109.70474472
_cell_angle_gamma   70.28009650
_chemical_formula_structural   Mn6Ta10
_chemical_formula_sum   'Mn6 Ta10'
_cell_volume   249.77760809
loop_
 _symmetry_equiv_pos_site_id
 _symmetry_equiv_pos_as_xyz
  1  'x, y, z'
loop_
 _atom_type_symbol
  Mn
  Ta
loop_
 _atom_site_type_symbol
 _atom_site_label
 _atom_site_symmetry_multiplicity
 _atom_site_fract_x
 _atom_site_fract_y
 _atom_site_fract_z
 _atom_site_occupancy
  Mn  Mn0  1  0.25050779  0.00000570  0.00017368  1
  Mn  Mn1  1  0.75051349  0.99999430  0.00017368  1
  Mn  Mn2  1  0.67556932  0.50000000  0.85048314  1
  Mn  Mn3  1  0.32529724  0.50000000  0.15046662  1
  Mn  Mn4  1  0.82591976  0.84992850  0.50029951  1
  Mn  Mn5  1  0.17584827  0.15007150  0.50029951  1
  Ta  Ta0  1  0.75044143  0.50000000  0.50063571  1
  Ta  Ta1  1  0.25048347  0.50000000  0.50053630  1
  Ta  Ta2  1  0.22098606  0.85351846  0.29539877  1
  Ta  Ta3  1  0.77947970  0.14648799  0.70535823  1
  Ta  Ta4  1  0.27953488  0.29512013  0.85417730  1
  Ta  Ta5  1  0.72104182  0.70487440  0.14686495  1
  Ta  Ta6  1  0.42596769  0.85351201  0.70535823  1
  Ta  Ta7  1  0.57450452  0.14648154  0.29539877  1
  Ta  Ta8  1  0.92591622  0.29512560  0.14686495  1
  Ta  Ta9  1  0.07465500  0.70487987  0.85417730  1
