# generated using pymatgen
data_3826_CsSm
_symmetry_space_group_name_H-M   'P-6m2'
_cell_length_a   3.83898000
_cell_length_b   3.83891401
_cell_length_c   7.56931600
_cell_angle_alpha   90.00000000
_cell_angle_beta   90.00000000
_cell_angle_gamma   120.00056868
_chemical_formula_structural   CsSm
_chemical_formula_sum   'Cs1 Sm1'
_cell_volume   96.60709269
loop_
 _symmetry_equiv_pos_site_id
 _symmetry_equiv_pos_as_xyz
  1  'x, y, z'
loop_
 _atom_type_symbol
  Cs
  Sm
loop_
 _atom_site_type_symbol
 _atom_site_label
 _atom_site_symmetry_multiplicity
 _atom_site_fract_x
 _atom_site_fract_y
 _atom_site_fract_z
 _atom_site_occupancy
  Cs  Cs0  1  0.66666618  0.33333249  0.75000043  1
  Sm  Sm0  1  0.33333391  0.66666798  0.25000014  1
