# generated using pymatgen
data_3828_Th6Bi8
_symmetry_space_group_name_H-M   'I-43d'
_cell_length_a   8.35267646
_cell_length_b   8.35267646
_cell_length_c   8.35267646
_cell_angle_alpha   109.47122063
_cell_angle_beta   109.47122063
_cell_angle_gamma   109.47122063
_chemical_formula_structural   Th6Bi8
_chemical_formula_sum   'Bi8 Th6'
_cell_volume   448.59567969
loop_
 _symmetry_equiv_pos_site_id
 _symmetry_equiv_pos_as_xyz
  1  'x, y, z'
loop_
 _atom_type_symbol
  Bi
  Th
loop_
 _atom_site_type_symbol
 _atom_site_label
 _atom_site_symmetry_multiplicity
 _atom_site_fract_x
 _atom_site_fract_y
 _atom_site_fract_z
 _atom_site_occupancy
  Bi  Bi0  1  0.15981808  0.00000000  0.00000000  1
  Bi  Bi1  1  0.65981803  0.00000000  0.00000000  1
  Bi  Bi2  1  0.49999995  0.49999995  0.15981808  1
  Bi  Bi3  1  0.34018187  0.84018182  0.34018187  1
  Bi  Bi4  1  1.00000000  0.15981808  0.49999995  1
  Bi  Bi5  1  1.00000000  0.65981803  0.49999995  1
  Bi  Bi6  1  0.49999995  0.49999995  0.65981803  1
  Bi  Bi7  1  0.84018182  0.34018187  0.84018182  1
  Th  Th0  1  0.87500043  0.74999992  0.12500051  1
  Th  Th1  1  0.12500051  0.37500048  0.24999997  1
  Th  Th2  1  0.62500046  0.24999997  0.37500048  1
  Th  Th3  1  0.74999992  0.87500043  0.62500046  1
  Th  Th4  1  0.37499944  0.12499947  0.74999992  1
  Th  Th5  1  0.24999997  0.62500046  0.87500043  1
