# generated using pymatgen
data_3829_Ir6W4
_symmetry_space_group_name_H-M   'Fdd2'
_cell_length_a   5.32687457
_cell_length_b   5.32687457
_cell_length_c   7.11594466
_cell_angle_alpha   81.17317829
_cell_angle_beta   81.17317829
_cell_angle_gamma   126.15910528
_chemical_formula_structural   Ir6W4
_chemical_formula_sum   'Ir6 W4'
_cell_volume   153.37698047
loop_
 _symmetry_equiv_pos_site_id
 _symmetry_equiv_pos_as_xyz
  1  'x, y, z'
loop_
 _atom_type_symbol
  Ir
  W
loop_
 _atom_site_type_symbol
 _atom_site_label
 _atom_site_symmetry_multiplicity
 _atom_site_fract_x
 _atom_site_fract_y
 _atom_site_fract_z
 _atom_site_occupancy
  Ir  Ir0  1  0.65666306  0.74010212  0.79724189  1
  Ir  Ir1  1  0.53734400  0.45390494  0.20275811  1
  Ir  Ir2  1  0.20390494  0.78734400  0.70275811  1
  Ir  Ir3  1  0.49010212  0.90666306  0.29724189  1
  Ir  Ir4  1  0.07551059  0.07551059  0.00000000  1
  Ir  Ir5  1  0.82551059  0.32551059  0.50000000  1
  W  W0  1  0.63035961  0.19931766  0.90080508  1
  W  W1  1  0.10012274  0.53116469  0.09919492  1
  W  W2  1  0.28116469  0.35012274  0.59919492  1
  W  W3  1  0.94931766  0.88035961  0.40080508  1
