# generated using pymatgen
data_3831_Na4P2
_symmetry_space_group_name_H-M   'P4_2/mnm'
_cell_length_a   3.22884865
_cell_length_b   7.16814218
_cell_length_c   7.19175253
_cell_angle_alpha   90.00000000
_cell_angle_beta   90.00000000
_cell_angle_gamma   90.00000000
_chemical_formula_structural   Na4P2
_chemical_formula_sum   'Na4 P2'
_cell_volume   166.45200622
loop_
 _symmetry_equiv_pos_site_id
 _symmetry_equiv_pos_as_xyz
  1  'x, y, z'
loop_
 _atom_type_symbol
  Na
  P
loop_
 _atom_site_type_symbol
 _atom_site_label
 _atom_site_symmetry_multiplicity
 _atom_site_fract_x
 _atom_site_fract_y
 _atom_site_fract_z
 _atom_site_occupancy
  Na  Na0  1  0.00000000  0.26945141  0.72450545  1
  Na  Na1  1  0.00000000  0.73054859  0.27549455  1
  Na  Na2  1  0.50000000  0.76945141  0.77549455  1
  Na  Na3  1  0.50000000  0.23054859  0.22450545  1
  P  P0  1  0.00000000  0.00000000  0.00000000  1
  P  P1  1  0.50000000  0.50000000  0.50000000  1
