# generated using pymatgen
data_3837_In2W4
_symmetry_space_group_name_H-M   'I4_1/amd'
_cell_length_a   10.30101764
_cell_length_b   10.30101764
_cell_length_c   10.30101764
_cell_angle_alpha   160.96854941
_cell_angle_beta   160.96854941
_cell_angle_gamma   27.04124958
_chemical_formula_structural   In2W4
_chemical_formula_sum   'In2 W4'
_cell_volume   116.18128244
loop_
 _symmetry_equiv_pos_site_id
 _symmetry_equiv_pos_as_xyz
  1  'x, y, z'
loop_
 _atom_type_symbol
  In
  W
loop_
 _atom_site_type_symbol
 _atom_site_label
 _atom_site_symmetry_multiplicity
 _atom_site_fract_x
 _atom_site_fract_y
 _atom_site_fract_z
 _atom_site_occupancy
  In  In0  1  0.00000000  0.00000000  0.00000000  1
  In  In1  1  0.25000000  0.75000000  0.50000000  1
  W  W0  1  0.58092065  0.58092065  0.00000000  1
  W  W1  1  0.66907935  0.16907935  0.50000000  1
  W  W2  1  0.41907935  0.41907935  0.00000000  1
  W  W3  1  0.83092065  0.33092065  0.50000000  1
