# generated using pymatgen
data_3844_Al8Fe
_symmetry_space_group_name_H-M   'I4/mmm'
_cell_length_a   6.26407900
_cell_length_b   6.26407900
_cell_length_c   6.26407900
_cell_angle_alpha   95.45539820
_cell_angle_beta   95.45539820
_cell_angle_gamma   144.08208746
_chemical_formula_structural   Al8Fe
_chemical_formula_sum   'Al8 Fe1'
_cell_volume   137.16394203
loop_
 _symmetry_equiv_pos_site_id
 _symmetry_equiv_pos_as_xyz
  1  'x, y, z'
loop_
 _atom_type_symbol
  Al
  Fe
loop_
 _atom_site_type_symbol
 _atom_site_label
 _atom_site_symmetry_multiplicity
 _atom_site_fract_x
 _atom_site_fract_y
 _atom_site_fract_z
 _atom_site_occupancy
  Al  Al0  1  0.65687064  0.65687064  0.31374128  1
  Al  Al1  1  0.34312936  0.34312936  0.68625872  1
  Al  Al2  1  0.00000000  0.32174568  0.32174568  1
  Al  Al3  1  0.34312936  0.65687064  0.00000000  1
  Al  Al4  1  0.67825432  1.00000000  0.67825432  1
  Al  Al5  1  0.65687064  0.34312936  0.00000000  1
  Al  Al6  1  1.00000000  0.67825432  0.67825432  1
  Al  Al7  1  0.32174568  1.00000000  0.32174568  1
  Fe  Fe0  1  0.00000000  0.00000000  0.00000000  1
