# generated using pymatgen
data_3845_P2Br4
_symmetry_space_group_name_H-M   'Cmcm'
_cell_length_a   7.63253578
_cell_length_b   7.63253578
_cell_length_c   8.39464329
_cell_angle_alpha   90.00000000
_cell_angle_beta   90.00000000
_cell_angle_gamma   152.15799300
_chemical_formula_structural   P2Br4
_chemical_formula_sum   'Br4 P2'
_cell_volume   228.39648909
loop_
 _symmetry_equiv_pos_site_id
 _symmetry_equiv_pos_as_xyz
  1  'x, y, z'
loop_
 _atom_type_symbol
  Br
  P
loop_
 _atom_site_type_symbol
 _atom_site_label
 _atom_site_symmetry_multiplicity
 _atom_site_fract_x
 _atom_site_fract_y
 _atom_site_fract_z
 _atom_site_occupancy
  Br  Br0  1  0.05222589  0.94777411  0.00000000  1
  Br  Br1  1  0.28706696  0.71293304  0.00000000  1
  Br  Br2  1  0.49071081  0.50928919  0.50000000  1
  Br  Br3  1  0.72555189  0.27444811  0.50000000  1
  P  P0  1  0.66984823  0.33015177  0.00000000  1
  P  P1  1  0.10792955  0.89207045  0.50000000  1
