# generated using pymatgen
data_384_CrAs3
_symmetry_space_group_name_H-M   'I4/mmm'
_cell_length_a   4.95242239
_cell_length_b   4.95242239
_cell_length_c   4.95242239
_cell_angle_alpha   131.87031438
_cell_angle_beta   131.87031438
_cell_angle_gamma   70.43392850
_chemical_formula_structural   CrAs3
_chemical_formula_sum   'As3 Cr1'
_cell_volume   66.00129579
loop_
 _symmetry_equiv_pos_site_id
 _symmetry_equiv_pos_as_xyz
  1  'x, y, z'
loop_
 _atom_type_symbol
  As
  Cr
loop_
 _atom_site_type_symbol
 _atom_site_label
 _atom_site_symmetry_multiplicity
 _atom_site_fract_x
 _atom_site_fract_y
 _atom_site_fract_z
 _atom_site_occupancy
  As  As0  1  0.25000000  0.75000000  0.50000000  1
  As  As1  1  0.50000000  0.50000000  0.00000000  1
  As  As2  1  0.75000000  0.25000000  0.50000000  1
  Cr  Cr0  1  0.00000000  0.00000000  0.00000000  1
