# generated using pymatgen
data_3853_Sn2P4
_symmetry_space_group_name_H-M   'Pnnm'
_cell_length_a   3.98855416
_cell_length_b   5.16757722
_cell_length_c   6.52247941
_cell_angle_alpha   90.00000000
_cell_angle_beta   90.00000000
_cell_angle_gamma   90.00000000
_chemical_formula_structural   Sn2P4
_chemical_formula_sum   'P4 Sn2'
_cell_volume   134.43587727
loop_
 _symmetry_equiv_pos_site_id
 _symmetry_equiv_pos_as_xyz
  1  'x, y, z'
loop_
 _atom_type_symbol
  P
  Sn
loop_
 _atom_site_type_symbol
 _atom_site_label
 _atom_site_symmetry_multiplicity
 _atom_site_fract_x
 _atom_site_fract_y
 _atom_site_fract_z
 _atom_site_occupancy
  P  P0  1  0.00000000  0.16471868  0.59868192  1
  P  P1  1  0.00000000  0.83528132  0.40131808  1
  P  P2  1  0.50000000  0.66471868  0.90131808  1
  P  P3  1  0.50000000  0.33528132  0.09868192  1
  Sn  Sn0  1  0.00000000  0.00000000  0.00000000  1
  Sn  Sn1  1  0.50000000  0.50000000  0.50000000  1
