# generated using pymatgen
data_3855_CuSr3
_symmetry_space_group_name_H-M   'P4/mmm'
_cell_length_a   3.94086788
_cell_length_b   3.92802232
_cell_length_c   11.02394267
_cell_angle_alpha   68.91593420
_cell_angle_beta   90.00000000
_cell_angle_gamma   90.00000000
_chemical_formula_structural   CuSr3
_chemical_formula_sum   'Cu1 Sr3'
_cell_volume   159.22430737
loop_
 _symmetry_equiv_pos_site_id
 _symmetry_equiv_pos_as_xyz
  1  'x, y, z'
loop_
 _atom_type_symbol
  Cu
  Sr
loop_
 _atom_site_type_symbol
 _atom_site_label
 _atom_site_symmetry_multiplicity
 _atom_site_fract_x
 _atom_site_fract_y
 _atom_site_fract_z
 _atom_site_occupancy
  Cu  Cu0  1  0.00000000  0.00000000  0.00000000  1
  Sr  Sr0  1  0.50000000  0.68645103  0.82224998  1
  Sr  Sr1  1  0.00000000  0.50000000  0.50000000  1
  Sr  Sr2  1  0.50000000  0.31354897  0.17775002  1
