# generated using pymatgen
data_385_IrPb2
_symmetry_space_group_name_H-M   'I4/mmm'
_cell_length_a   7.16551875
_cell_length_b   7.16551875
_cell_length_c   4.72508544
_cell_angle_alpha   90.00000000
_cell_angle_beta   90.00000000
_cell_angle_gamma   141.87677588
_chemical_formula_structural   IrPb2
_chemical_formula_sum   'Ir2 Pb4'
_cell_volume   149.77515163
loop_
 _symmetry_equiv_pos_site_id
 _symmetry_equiv_pos_as_xyz
  1  'x, y, z'
loop_
 _atom_type_symbol
  Ir
  Pb
loop_
 _atom_site_type_symbol
 _atom_site_label
 _atom_site_symmetry_multiplicity
 _atom_site_fract_x
 _atom_site_fract_y
 _atom_site_fract_z
 _atom_site_occupancy
  Ir  Ir0  1  0.97277843  0.02722157  0.00000000  1
  Ir  Ir1  1  0.47166602  0.52833398  0.50000000  1
  Pb  Pb0  1  0.34328046  0.65671954  0.00000000  1
  Pb  Pb1  1  0.60528727  0.39471273  0.00000000  1
  Pb  Pb2  1  0.83915717  0.16084283  0.50000000  1
  Pb  Pb3  1  0.10116398  0.89883602  0.50000000  1
