# generated using pymatgen
data_3860_IrP
_symmetry_space_group_name_H-M   'Pm -3 m'
_cell_length_a   3.01753782
_cell_length_b   3.01753782
_cell_length_c   3.01753782
_cell_angle_alpha   90.00000000
_cell_angle_beta   90.00000000
_cell_angle_gamma   90.00000000
_chemical_formula_structural   IrP
_chemical_formula_sum   'Ir1 P1'
_cell_volume   27.47629471
loop_
 _symmetry_equiv_pos_site_id
 _symmetry_equiv_pos_as_xyz
  1  'x, y, z'
loop_
 _atom_type_symbol
  Ir
  P
loop_
 _atom_site_type_symbol
 _atom_site_label
 _atom_site_symmetry_multiplicity
 _atom_site_fract_x
 _atom_site_fract_y
 _atom_site_fract_z
 _atom_site_occupancy
  Ir  Ir0  1  0.00000000  0.00000000  0.00000000  1
  P  P0  1  0.49999894  0.49999894  0.49999894  1
