# generated using pymatgen
data_3861_FeRb
_symmetry_space_group_name_H-M   'Amm2'
_cell_length_a   4.52337205
_cell_length_b   3.39153377
_cell_length_c   5.50075706
_cell_angle_alpha   90.00000000
_cell_angle_beta   90.00000000
_cell_angle_gamma   131.82536095
_chemical_formula_structural   FeRb
_chemical_formula_sum   'Fe1 Rb1'
_cell_volume   62.88435842
loop_
 _symmetry_equiv_pos_site_id
 _symmetry_equiv_pos_as_xyz
  1  'x, y, z'
loop_
 _atom_type_symbol
  Fe
  Rb
loop_
 _atom_site_type_symbol
 _atom_site_label
 _atom_site_symmetry_multiplicity
 _atom_site_fract_x
 _atom_site_fract_y
 _atom_site_fract_z
 _atom_site_occupancy
  Fe  Fe0  1  0.74480937  0.48961774  0.75000000  1
  Rb  Rb0  1  0.25519063  0.51038226  0.25000000  1
