# generated using pymatgen
data_3866_FeAs
_symmetry_space_group_name_H-M   'Pm -3 m'
_cell_length_a   2.97621035
_cell_length_b   4.22112561
_cell_length_c   4.22491510
_cell_angle_alpha   90.00000000
_cell_angle_beta   90.00000000
_cell_angle_gamma   90.00000000
_chemical_formula_structural   FeAs
_chemical_formula_sum   'As2 Fe2'
_cell_volume   53.07742981
loop_
 _symmetry_equiv_pos_site_id
 _symmetry_equiv_pos_as_xyz
  1  'x, y, z'
loop_
 _atom_type_symbol
  As
  Fe
loop_
 _atom_site_type_symbol
 _atom_site_label
 _atom_site_symmetry_multiplicity
 _atom_site_fract_x
 _atom_site_fract_y
 _atom_site_fract_z
 _atom_site_occupancy
  As  As0  1  0.00000000  0.00000000  0.91651458  1
  As  As1  1  0.00000000  0.50000000  0.41681876  1
  Fe  Fe0  1  0.50000000  0.00000000  0.41622133  1
  Fe  Fe1  1  0.50000000  0.50000000  0.91711200  1
