# generated using pymatgen
data_386_Na2Pt2
_symmetry_space_group_name_H-M   'Cmcm'
_cell_length_a   2.73558394
_cell_length_b   5.80792765
_cell_length_c   4.59545486
_cell_angle_alpha   90.00000000
_cell_angle_beta   90.00000000
_cell_angle_gamma   76.37864826
_chemical_formula_structural   Na2Pt2
_chemical_formula_sum   'Na2 Pt2'
_cell_volume   70.95931278
loop_
 _symmetry_equiv_pos_site_id
 _symmetry_equiv_pos_as_xyz
  1  'x, y, z'
loop_
 _atom_type_symbol
  Na
  Pt
loop_
 _atom_site_type_symbol
 _atom_site_label
 _atom_site_symmetry_multiplicity
 _atom_site_fract_x
 _atom_site_fract_y
 _atom_site_fract_z
 _atom_site_occupancy
  Na  Na0  1  0.55804064  0.88391872  0.25000000  1
  Na  Na1  1  0.44195936  0.11608128  0.75000000  1
  Pt  Pt0  1  0.79847473  0.40305055  0.25000000  1
  Pt  Pt1  1  0.20152527  0.59694945  0.75000000  1
