# generated using pymatgen
data_3875_In4K
_symmetry_space_group_name_H-M   'Im -3 m'
_cell_length_a   6.60354927
_cell_length_b   6.60354927
_cell_length_c   6.60354927
_cell_angle_alpha   109.47122063
_cell_angle_beta   109.47122063
_cell_angle_gamma   109.47122063
_chemical_formula_structural   In4K
_chemical_formula_sum   'In4 K1'
_cell_volume   221.67176400
loop_
 _symmetry_equiv_pos_site_id
 _symmetry_equiv_pos_as_xyz
  1  'x, y, z'
loop_
 _atom_type_symbol
  In
  K
loop_
 _atom_site_type_symbol
 _atom_site_label
 _atom_site_symmetry_multiplicity
 _atom_site_fract_x
 _atom_site_fract_y
 _atom_site_fract_z
 _atom_site_occupancy
  In  In0  1  0.00000000  0.50000000  0.00000000  1
  In  In1  1  0.50000000  0.50000000  0.50000000  1
  In  In2  1  0.00000000  0.00000000  0.50000000  1
  In  In3  1  0.50000000  0.00000000  0.00000000  1
  K  K0  1  0.00000000  0.00000000  0.00000000  1
