# generated using pymatgen
data_3883_Pt2As
_symmetry_space_group_name_H-M   'P4/mmm'
_cell_length_a   3.88957316
_cell_length_b   3.88957316
_cell_length_c   3.54016785
_cell_angle_alpha   90.00000000
_cell_angle_beta   90.00000000
_cell_angle_gamma   90.00000000
_chemical_formula_structural   Pt2As
_chemical_formula_sum   'As1 Pt2'
_cell_volume   53.55841832
loop_
 _symmetry_equiv_pos_site_id
 _symmetry_equiv_pos_as_xyz
  1  'x, y, z'
loop_
 _atom_type_symbol
  As
  Pt
loop_
 _atom_site_type_symbol
 _atom_site_label
 _atom_site_symmetry_multiplicity
 _atom_site_fract_x
 _atom_site_fract_y
 _atom_site_fract_z
 _atom_site_occupancy
  As  As0  1  0.00000000  0.00000000  0.00000000  1
  Pt  Pt0  1  0.00000000  0.50000000  0.50000000  1
  Pt  Pt1  1  0.50000000  0.00000000  0.50000000  1
