# generated using pymatgen
data_3885_BaGe8
_symmetry_space_group_name_H-M   'I4/mmm'
_cell_length_a   7.10520171
_cell_length_b   7.10520171
_cell_length_c   7.10520171
_cell_angle_alpha   96.00389595
_cell_angle_beta   96.00389595
_cell_angle_gamma   142.26106818
_chemical_formula_structural   BaGe8
_chemical_formula_sum   'Ba1 Ge8'
_cell_volume   207.74756362
loop_
 _symmetry_equiv_pos_site_id
 _symmetry_equiv_pos_as_xyz
  1  'x, y, z'
loop_
 _atom_type_symbol
  Ba
  Ge
loop_
 _atom_site_type_symbol
 _atom_site_label
 _atom_site_symmetry_multiplicity
 _atom_site_fract_x
 _atom_site_fract_y
 _atom_site_fract_z
 _atom_site_occupancy
  Ba  Ba0  1  0.00000000  0.00000000  0.00000000  1
  Ge  Ge0  1  0.29986725  0.70013275  0.00000000  1
  Ge  Ge1  1  0.70013275  0.29986725  0.00000000  1
  Ge  Ge2  1  0.00000000  0.36175413  0.36175413  1
  Ge  Ge3  1  0.70013275  0.70013275  0.40026550  1
  Ge  Ge4  1  0.36175413  0.00000000  0.36175413  1
  Ge  Ge5  1  0.29986725  0.29986725  0.59973450  1
  Ge  Ge6  1  1.00000000  0.63824587  0.63824587  1
  Ge  Ge7  1  0.63824587  0.00000000  0.63824587  1
