# generated using pymatgen
data_3886_Pb6V2
_symmetry_space_group_name_H-M   'Pmmn'
_cell_length_a   5.26476549
_cell_length_b   6.18473412
_cell_length_c   6.25313155
_cell_angle_alpha   90.00000000
_cell_angle_beta   90.00000000
_cell_angle_gamma   90.00000000
_chemical_formula_structural   Pb6V2
_chemical_formula_sum   'Pb6 V2'
_cell_volume   203.60930920
loop_
 _symmetry_equiv_pos_site_id
 _symmetry_equiv_pos_as_xyz
  1  'x, y, z'
loop_
 _atom_type_symbol
  Pb
  V
loop_
 _atom_site_type_symbol
 _atom_site_label
 _atom_site_symmetry_multiplicity
 _atom_site_fract_x
 _atom_site_fract_y
 _atom_site_fract_z
 _atom_site_occupancy
  Pb  Pb0  1  0.50000000  0.61750595  0.00000000  1
  Pb  Pb1  1  0.00000000  0.38249405  0.50000000  1
  Pb  Pb2  1  0.00000000  0.84036123  0.25038162  1
  Pb  Pb3  1  0.00000000  0.84036123  0.74961838  1
  Pb  Pb4  1  0.50000000  0.15963877  0.75038162  1
  Pb  Pb5  1  0.50000000  0.15963877  0.24961838  1
  V  V0  1  0.00000000  0.31161724  0.00000000  1
  V  V1  1  0.50000000  0.68838276  0.50000000  1
