# generated using pymatgen
data_3887_SmSb
_symmetry_space_group_name_H-M   'R -3 m'
_cell_length_a   4.51922697
_cell_length_b   4.51922697
_cell_length_c   4.51922671
_cell_angle_alpha   57.17917784
_cell_angle_beta   57.17917784
_cell_angle_gamma   57.17917097
_chemical_formula_structural   SmSb
_chemical_formula_sum   'Sb1 Sm1'
_cell_volume   61.02343452
loop_
 _symmetry_equiv_pos_site_id
 _symmetry_equiv_pos_as_xyz
  1  'x, y, z'
loop_
 _atom_type_symbol
  Sb
  Sm
loop_
 _atom_site_type_symbol
 _atom_site_label
 _atom_site_symmetry_multiplicity
 _atom_site_fract_x
 _atom_site_fract_y
 _atom_site_fract_z
 _atom_site_occupancy
  Sb  Sb0  1  0.00000000  0.00000000  0.00000000  1
  Sm  Sm0  1  0.50000000  0.50000000  0.50000000  1
