# generated using pymatgen
data_3888_FeP5
_symmetry_space_group_name_H-M   'Cmmm'
_cell_length_a   6.31733908
_cell_length_b   6.31733908
_cell_length_c   4.29195283
_cell_angle_alpha   90.00000000
_cell_angle_beta   90.00000000
_cell_angle_gamma   147.64443438
_chemical_formula_structural   FeP5
_chemical_formula_sum   'Fe1 P5'
_cell_volume   91.66774889
loop_
 _symmetry_equiv_pos_site_id
 _symmetry_equiv_pos_as_xyz
  1  'x, y, z'
loop_
 _atom_type_symbol
  Fe
  P
loop_
 _atom_site_type_symbol
 _atom_site_label
 _atom_site_symmetry_multiplicity
 _atom_site_fract_x
 _atom_site_fract_y
 _atom_site_fract_z
 _atom_site_occupancy
  Fe  Fe0  1  0.94443417  0.05556583  0.00000000  1
  P  P0  1  0.56198829  0.43801171  0.00000000  1
  P  P1  1  0.32697146  0.67302854  0.00000000  1
  P  P2  1  0.63566041  0.36433959  0.50000000  1
  P  P3  1  0.25351220  0.74648780  0.50000000  1
  P  P4  1  0.94410012  0.05589988  0.50000000  1
