# generated using pymatgen
data_3890_IrNi
_symmetry_space_group_name_H-M   'Pm -3 m'
_cell_length_a   2.93351200
_cell_length_b   2.93351200
_cell_length_c   2.93351200
_cell_angle_alpha   90.00000000
_cell_angle_beta   90.00000000
_cell_angle_gamma   90.00000000
_chemical_formula_structural   IrNi
_chemical_formula_sum   'Ir1 Ni1'
_cell_volume   25.24431597
loop_
 _symmetry_equiv_pos_site_id
 _symmetry_equiv_pos_as_xyz
  1  'x, y, z'
loop_
 _atom_type_symbol
  Ir
  Ni
loop_
 _atom_site_type_symbol
 _atom_site_label
 _atom_site_symmetry_multiplicity
 _atom_site_fract_x
 _atom_site_fract_y
 _atom_site_fract_z
 _atom_site_occupancy
  Ir  Ir0  1  0.00000000  0.00000000  0.00000000  1
  Ni  Ni0  1  0.50000137  0.50000137  0.50000137  1
