# generated using pymatgen
data_3891_KP2
_symmetry_space_group_name_H-M   'Fmmm'
_cell_length_a   6.22292929
_cell_length_b   6.22292929
_cell_length_c   4.67428457
_cell_angle_alpha   90.00000000
_cell_angle_beta   90.00000000
_cell_angle_gamma   136.58699779
_chemical_formula_structural   KP2
_chemical_formula_sum   'K2 P4'
_cell_volume   124.40021486
loop_
 _symmetry_equiv_pos_site_id
 _symmetry_equiv_pos_as_xyz
  1  'x, y, z'
loop_
 _atom_type_symbol
  K
  P
loop_
 _atom_site_type_symbol
 _atom_site_label
 _atom_site_symmetry_multiplicity
 _atom_site_fract_x
 _atom_site_fract_y
 _atom_site_fract_z
 _atom_site_occupancy
  K  K0  1  0.24980063  0.24980063  0.25000000  1
  K  K1  1  0.75019937  0.75019937  0.75000000  1
  P  P0  1  0.53408967  0.96592299  0.25000000  1
  P  P1  1  0.46591033  0.03407701  0.75000000  1
  P  P2  1  0.96592299  0.53408967  0.25000000  1
  P  P3  1  0.03407701  0.46591033  0.75000000  1
