# generated using pymatgen
data_3892_BaIn3
_symmetry_space_group_name_H-M   'C2/m'
_cell_length_a   6.23615447
_cell_length_b   6.23615447
_cell_length_c   6.29537112
_cell_angle_alpha   80.18600771
_cell_angle_beta   80.18600771
_cell_angle_gamma   34.63984070
_chemical_formula_structural   BaIn3
_chemical_formula_sum   'Ba1 In3'
_cell_volume   136.92610178
loop_
 _symmetry_equiv_pos_site_id
 _symmetry_equiv_pos_as_xyz
  1  'x, y, z'
loop_
 _atom_type_symbol
  Ba
  In
loop_
 _atom_site_type_symbol
 _atom_site_label
 _atom_site_symmetry_multiplicity
 _atom_site_fract_x
 _atom_site_fract_y
 _atom_site_fract_z
 _atom_site_occupancy
  Ba  Ba0  1  0.00000000  0.00000000  0.00000000  1
  In  In0  1  0.50000000  0.50000000  0.50000000  1
  In  In1  1  0.75066482  0.75066482  0.74757679  1
  In  In2  1  0.24933518  0.24933518  0.25242321  1
