# generated using pymatgen
data_3896_K2P2
_symmetry_space_group_name_H-M   'Cmcm'
_cell_length_a   6.54897081
_cell_length_b   6.54897081
_cell_length_c   6.16891122
_cell_angle_alpha   90.00000000
_cell_angle_beta   90.00000000
_cell_angle_gamma   156.42394617
_chemical_formula_structural   K2P2
_chemical_formula_sum   'K2 P2'
_cell_volume   105.82242742
loop_
 _symmetry_equiv_pos_site_id
 _symmetry_equiv_pos_as_xyz
  1  'x, y, z'
loop_
 _atom_type_symbol
  K
  P
loop_
 _atom_site_type_symbol
 _atom_site_label
 _atom_site_symmetry_multiplicity
 _atom_site_fract_x
 _atom_site_fract_y
 _atom_site_fract_z
 _atom_site_occupancy
  K  K0  1  0.12394970  0.87605030  0.25000000  1
  K  K1  1  0.87605030  0.12394970  0.75000000  1
  P  P0  1  0.38204921  0.61795079  0.25000000  1
  P  P1  1  0.61795079  0.38204921  0.75000000  1
