# generated using pymatgen
data_3898_Ag5Pt7
_symmetry_space_group_name_H-M   'Imm2'
_cell_length_a   7.54645715
_cell_length_b   7.54645715
_cell_length_c   7.54645715
_cell_angle_alpha   148.88506592
_cell_angle_beta   115.77507098
_cell_angle_gamma   73.08385735
_chemical_formula_structural   Ag5Pt7
_chemical_formula_sum   'Ag5 Pt7'
_cell_volume   196.91106880
loop_
 _symmetry_equiv_pos_site_id
 _symmetry_equiv_pos_as_xyz
  1  'x, y, z'
loop_
 _atom_type_symbol
  Ag
  Pt
loop_
 _atom_site_type_symbol
 _atom_site_label
 _atom_site_symmetry_multiplicity
 _atom_site_fract_x
 _atom_site_fract_y
 _atom_site_fract_z
 _atom_site_occupancy
  Ag  Ag0  1  0.99848683  0.99848683  1.00000000  1
  Ag  Ag1  1  0.91634055  0.16636444  0.74997611  1
  Ag  Ag2  1  0.83600881  0.33600881  0.50000000  1
  Ag  Ag3  1  0.67173086  0.67173086  1.00000000  1
  Ag  Ag4  1  0.41638833  0.16636444  0.25002389  1
  Pt  Pt0  1  0.73895165  0.49748074  0.24147091  1
  Pt  Pt1  1  0.57382011  0.83589992  0.73792019  1
  Pt  Pt2  1  0.49894041  0.99894041  0.50000000  1
  Pt  Pt3  1  0.33275998  0.33275998  0.00000000  1
  Pt  Pt4  1  0.25600983  0.49748074  0.75852909  1
  Pt  Pt5  1  0.16258289  0.66258289  0.50000000  1
  Pt  Pt6  1  0.09797973  0.83589992  0.26207981  1
