# generated using pymatgen
data_389_Cr2As4
_symmetry_space_group_name_H-M   'I4_1/amd'
_cell_length_a   11.24848721
_cell_length_b   11.24848721
_cell_length_c   11.24848721
_cell_angle_alpha   164.65453490
_cell_angle_beta   164.65453490
_cell_angle_gamma   21.76763510
_chemical_formula_structural   Cr2As4
_chemical_formula_sum   'As4 Cr2'
_cell_volume   99.65897156
loop_
 _symmetry_equiv_pos_site_id
 _symmetry_equiv_pos_as_xyz
  1  'x, y, z'
loop_
 _atom_type_symbol
  As
  Cr
loop_
 _atom_site_type_symbol
 _atom_site_label
 _atom_site_symmetry_multiplicity
 _atom_site_fract_x
 _atom_site_fract_y
 _atom_site_fract_z
 _atom_site_occupancy
  As  As0  1  0.56470676  0.56470676  0.00000000  1
  As  As1  1  0.68529324  0.18529324  0.50000000  1
  As  As2  1  0.43529324  0.43529324  0.00000000  1
  As  As3  1  0.81470676  0.31470676  0.50000000  1
  Cr  Cr0  1  0.00000000  0.00000000  0.00000000  1
  Cr  Cr1  1  0.25000000  0.75000000  0.50000000  1
