# generated using pymatgen
data_3900_Eu2Ga4
_symmetry_space_group_name_H-M   'Imma'
_cell_length_a   4.60852400
_cell_length_b   5.81112368
_cell_length_c   5.81112368
_cell_angle_alpha   99.14467632
_cell_angle_beta   113.36118482
_cell_angle_gamma   66.63881518
_chemical_formula_structural   Eu2Ga4
_chemical_formula_sum   'Eu2 Ga4'
_cell_volume   131.15618492
loop_
 _symmetry_equiv_pos_site_id
 _symmetry_equiv_pos_as_xyz
  1  'x, y, z'
loop_
 _atom_type_symbol
  Eu
  Ga
loop_
 _atom_site_type_symbol
 _atom_site_label
 _atom_site_symmetry_multiplicity
 _atom_site_fract_x
 _atom_site_fract_y
 _atom_site_fract_z
 _atom_site_occupancy
  Eu  Eu0  1  0.74999963  0.70467026  0.20467126  1
  Eu  Eu1  1  0.24999950  0.29532944  0.79532843  1
  Ga  Ga0  1  0.06599131  0.09561000  0.22759261  1
  Ga  Ga1  1  0.56599087  0.27240724  0.40438985  1
  Ga  Ga2  1  0.43400826  0.72759246  0.59560984  1
  Ga  Ga3  1  0.93400782  0.90438970  0.77240708  1
