# generated using pymatgen
data_3903_AlGa2
_symmetry_space_group_name_H-M   'I4/mmm'
_cell_length_a   6.60209591
_cell_length_b   6.60209591
_cell_length_c   6.60209591
_cell_angle_alpha   154.42429279
_cell_angle_beta   154.42429279
_cell_angle_gamma   36.48319491
_chemical_formula_structural   AlGa2
_chemical_formula_sum   'Al1 Ga2'
_cell_volume   53.55983822
loop_
 _symmetry_equiv_pos_site_id
 _symmetry_equiv_pos_as_xyz
  1  'x, y, z'
loop_
 _atom_type_symbol
  Al
  Ga
loop_
 _atom_site_type_symbol
 _atom_site_label
 _atom_site_symmetry_multiplicity
 _atom_site_fract_x
 _atom_site_fract_y
 _atom_site_fract_z
 _atom_site_occupancy
  Al  Al0  1  0.50000000  0.50000000  0.00000000  1
  Ga  Ga0  1  0.16229322  0.16229322  0.00000000  1
  Ga  Ga1  1  0.83770678  0.83770678  0.00000000  1
