# generated using pymatgen
data_3906_Al2Fe
_symmetry_space_group_name_H-M   'I4/mmm'
_cell_length_a   4.75406599
_cell_length_b   4.75406599
_cell_length_c   4.75406599
_cell_angle_alpha   143.22186966
_cell_angle_beta   143.22186966
_cell_angle_gamma   52.99247432
_chemical_formula_structural   Al2Fe
_chemical_formula_sum   'Al2 Fe1'
_cell_volume   38.27995936
loop_
 _symmetry_equiv_pos_site_id
 _symmetry_equiv_pos_as_xyz
  1  'x, y, z'
loop_
 _atom_type_symbol
  Al
  Fe
loop_
 _atom_site_type_symbol
 _atom_site_label
 _atom_site_symmetry_multiplicity
 _atom_site_fract_x
 _atom_site_fract_y
 _atom_site_fract_z
 _atom_site_occupancy
  Al  Al0  1  0.34674684  0.34674684  0.00000000  1
  Al  Al1  1  0.65325316  0.65325316  0.00000000  1
  Fe  Fe0  1  0.00000000  0.00000000  0.00000000  1
