# generated using pymatgen
data_3907_Nb4Sr16
_symmetry_space_group_name_H-M   'I-43m'
_cell_length_a   10.85977330
_cell_length_b   10.85977330
_cell_length_c   10.85977330
_cell_angle_alpha   109.47122063
_cell_angle_beta   109.47122063
_cell_angle_gamma   109.47122063
_chemical_formula_structural   Nb4Sr16
_chemical_formula_sum   'Nb4 Sr16'
_cell_volume   985.91707397
loop_
 _symmetry_equiv_pos_site_id
 _symmetry_equiv_pos_as_xyz
  1  'x, y, z'
loop_
 _atom_type_symbol
  Nb
  Sr
loop_
 _atom_site_type_symbol
 _atom_site_label
 _atom_site_symmetry_multiplicity
 _atom_site_fract_x
 _atom_site_fract_y
 _atom_site_fract_z
 _atom_site_occupancy
  Nb  Nb0  1  0.31348269  0.31348269  0.31348269  1
  Nb  Nb1  1  0.68651731  0.00000000  0.00000000  1
  Nb  Nb2  1  1.00000000  0.68651731  0.00000000  1
  Nb  Nb3  1  1.00000000  0.00000000  0.68651731  1
  Sr  Sr0  1  0.59881699  0.59881699  0.59881699  1
  Sr  Sr1  1  0.40118301  0.00000000  0.00000000  1
  Sr  Sr2  1  0.00000000  0.40118301  0.00000000  1
  Sr  Sr3  1  0.00000000  0.00000000  0.40118301  1
  Sr  Sr4  1  0.70623187  0.70623187  0.00000000  1
  Sr  Sr5  1  0.29376813  0.29376813  0.00000000  1
  Sr  Sr6  1  0.70623187  0.00000000  0.70623187  1
  Sr  Sr7  1  0.29376813  0.00000000  0.29376813  1
  Sr  Sr8  1  0.00000000  0.70623187  0.70623187  1
  Sr  Sr9  1  1.00000000  0.29376813  0.29376813  1
  Sr  Sr10  1  0.25006298  0.75006298  0.50000000  1
  Sr  Sr11  1  0.74993702  0.24993702  0.50000000  1
  Sr  Sr12  1  0.75006298  0.50000000  0.25006298  1
  Sr  Sr13  1  0.24993702  0.50000000  0.74993702  1
  Sr  Sr14  1  0.50000000  0.25006298  0.75006298  1
  Sr  Sr15  1  0.50000000  0.74993702  0.24993702  1
