# generated using pymatgen
data_3909_Ba2Ge
_symmetry_space_group_name_H-M   'I4/mmm'
_cell_length_a   6.26936424
_cell_length_b   6.26936424
_cell_length_c   6.33337303
_cell_angle_alpha   90.00000000
_cell_angle_beta   90.00000000
_cell_angle_gamma   119.36290009
_chemical_formula_structural   Ba2Ge
_chemical_formula_sum   'Ba4 Ge2'
_cell_volume   216.95275032
loop_
 _symmetry_equiv_pos_site_id
 _symmetry_equiv_pos_as_xyz
  1  'x, y, z'
loop_
 _atom_type_symbol
  Ba
  Ge
loop_
 _atom_site_type_symbol
 _atom_site_label
 _atom_site_symmetry_multiplicity
 _atom_site_fract_x
 _atom_site_fract_y
 _atom_site_fract_z
 _atom_site_occupancy
  Ba  Ba0  1  0.59348286  0.89806051  0.25000000  1
  Ba  Ba1  1  0.40651714  0.10193949  0.75000000  1
  Ba  Ba2  1  0.89806051  0.59348286  0.25000000  1
  Ba  Ba3  1  0.10193949  0.40651714  0.75000000  1
  Ge  Ge0  1  0.24922918  0.24922918  0.25000000  1
  Ge  Ge1  1  0.75077082  0.75077082  0.75000000  1
