# generated using pymatgen
data_3919_KPt5
_symmetry_space_group_name_H-M   'P4/mmm'
_cell_length_a   2.84925660
_cell_length_b   2.84925660
_cell_length_c   13.14819481
_cell_angle_alpha   90.00000000
_cell_angle_beta   90.00000000
_cell_angle_gamma   90.00000000
_chemical_formula_structural   KPt5
_chemical_formula_sum   'K1 Pt5'
_cell_volume   106.74050571
loop_
 _symmetry_equiv_pos_site_id
 _symmetry_equiv_pos_as_xyz
  1  'x, y, z'
loop_
 _atom_type_symbol
  K
  Pt
loop_
 _atom_site_type_symbol
 _atom_site_label
 _atom_site_symmetry_multiplicity
 _atom_site_fract_x
 _atom_site_fract_y
 _atom_site_fract_z
 _atom_site_occupancy
  K  K0  1  0.50000000  0.50000000  0.00000000  1
  Pt  Pt0  1  0.00000000  0.00000000  0.79436972  1
  Pt  Pt1  1  0.00000000  0.00000000  0.20563028  1
  Pt  Pt2  1  0.50000000  0.50000000  0.64694067  1
  Pt  Pt3  1  0.50000000  0.50000000  0.35305933  1
  Pt  Pt4  1  0.00000000  0.00000000  0.50000000  1
