# generated using pymatgen
data_3926_InW
_symmetry_space_group_name_H-M   'P4/mmm'
_cell_length_a   3.55580606
_cell_length_b   3.55580606
_cell_length_c   2.92632415
_cell_angle_alpha   90.00000000
_cell_angle_beta   90.00000000
_cell_angle_gamma   90.00000000
_chemical_formula_structural   InW
_chemical_formula_sum   'In1 W1'
_cell_volume   36.99973068
loop_
 _symmetry_equiv_pos_site_id
 _symmetry_equiv_pos_as_xyz
  1  'x, y, z'
loop_
 _atom_type_symbol
  In
  W
loop_
 _atom_site_type_symbol
 _atom_site_label
 _atom_site_symmetry_multiplicity
 _atom_site_fract_x
 _atom_site_fract_y
 _atom_site_fract_z
 _atom_site_occupancy
  In  In0  1  0.50000000  0.00000000  0.99998626  1
  W  W0  1  0.00000000  0.50000000  0.49982493  1
