# generated using pymatgen
data_3979_Ni3V
_symmetry_space_group_name_H-M   'I4/mmm'
_cell_length_a   4.38710237
_cell_length_b   4.38710237
_cell_length_c   4.38710237
_cell_angle_alpha   133.00261996
_cell_angle_beta   133.00261996
_cell_angle_gamma   68.65003336
_chemical_formula_structural   Ni3V
_chemical_formula_sum   'Ni3 V1'
_cell_volume   44.34547384
loop_
 _symmetry_equiv_pos_site_id
 _symmetry_equiv_pos_as_xyz
  1  'x, y, z'
loop_
 _atom_type_symbol
  Ni
  V
loop_
 _atom_site_type_symbol
 _atom_site_label
 _atom_site_symmetry_multiplicity
 _atom_site_fract_x
 _atom_site_fract_y
 _atom_site_fract_z
 _atom_site_occupancy
  Ni  Ni0  1  0.50000030  0.50000030  0.00000000  1
  Ni  Ni1  1  0.74999978  0.25000015  0.49999963  1
  Ni  Ni2  1  0.25000015  0.74999978  0.49999963  1
  V  V0  1  0.00000000  0.00000000  0.00000000  1
