# generated using pymatgen
data_397_AuNb3
_symmetry_space_group_name_H-M   'Pmm2'
_cell_length_a   2.72283593
_cell_length_b   4.95586479
_cell_length_c   5.32885869
_cell_angle_alpha   90.00000000
_cell_angle_beta   90.00000000
_cell_angle_gamma   90.00000000
_chemical_formula_structural   AuNb3
_chemical_formula_sum   'Au1 Nb3'
_cell_volume   71.90765494
loop_
 _symmetry_equiv_pos_site_id
 _symmetry_equiv_pos_as_xyz
  1  'x, y, z'
loop_
 _atom_type_symbol
  Au
  Nb
loop_
 _atom_site_type_symbol
 _atom_site_label
 _atom_site_symmetry_multiplicity
 _atom_site_fract_x
 _atom_site_fract_y
 _atom_site_fract_z
 _atom_site_occupancy
  Au  Au0  1  0.00000000  0.00000000  0.00144196  1
  Nb  Nb0  1  0.00000000  0.50000000  0.33428797  1
  Nb  Nb1  1  0.50000000  0.00000000  0.50352375  1
  Nb  Nb2  1  0.50000000  0.50000000  0.82741299  1
