# generated using pymatgen
data_3982_Cu2W2
_symmetry_space_group_name_H-M   'Cmme'
_cell_length_a   2.67228518
_cell_length_b   2.67228518
_cell_length_c   8.33024374
_cell_angle_alpha   90.00000000
_cell_angle_beta   90.00000000
_cell_angle_gamma   105.47178786
_chemical_formula_structural   Cu2W2
_chemical_formula_sum   'Cu2 W2'
_cell_volume   57.33147011
loop_
 _symmetry_equiv_pos_site_id
 _symmetry_equiv_pos_as_xyz
  1  'x, y, z'
loop_
 _atom_type_symbol
  Cu
  W
loop_
 _atom_site_type_symbol
 _atom_site_label
 _atom_site_symmetry_multiplicity
 _atom_site_fract_x
 _atom_site_fract_y
 _atom_site_fract_z
 _atom_site_occupancy
  Cu  Cu0  1  1.00000000  0.00000000  0.98904539  1
  Cu  Cu1  1  0.50000000  0.50000000  0.76095461  1
  W  W0  1  0.00000000  1.00000000  0.51030759  1
  W  W1  1  0.50000000  0.50000000  0.23969241  1
