# generated using pymatgen
data_3987_Cs8Sb8
_symmetry_space_group_name_H-M   'P2_12_12_1'
_cell_length_a   7.81378200
_cell_length_b   7.54280200
_cell_length_c   13.48194300
_cell_angle_alpha   90.00000000
_cell_angle_beta   90.00000000
_cell_angle_gamma   90.00000000
_chemical_formula_structural   Cs8Sb8
_chemical_formula_sum   'Cs8 Sb8'
_cell_volume   794.59620167
loop_
 _symmetry_equiv_pos_site_id
 _symmetry_equiv_pos_as_xyz
  1  'x, y, z'
loop_
 _atom_type_symbol
  Cs
  Sb
loop_
 _atom_site_type_symbol
 _atom_site_label
 _atom_site_symmetry_multiplicity
 _atom_site_fract_x
 _atom_site_fract_y
 _atom_site_fract_z
 _atom_site_occupancy
  Cs  Cs0  1  0.41126308  0.92249402  0.03531909  1
  Cs  Cs1  1  0.85302611  0.15475681  0.16836669  1
  Cs  Cs2  1  0.14697364  0.65475666  0.33163322  1
  Cs  Cs3  1  0.58873796  0.42249417  0.46468155  1
  Cs  Cs4  1  0.08873680  0.07750568  0.53531900  1
  Cs  Cs5  1  0.64697480  0.84524289  0.66836659  1
  Cs  Cs6  1  0.35302624  0.34524304  0.83163312  1
  Cs  Cs7  1  0.91126296  0.57750553  0.96468145  1
  Sb  Sb0  1  0.42942842  0.42355081  0.13673104  1
  Sb  Sb1  1  0.68499992  0.66070537  0.21908341  1
  Sb  Sb2  1  0.31499983  0.16070685  0.28091649  1
  Sb  Sb3  1  0.57057134  0.92355198  0.36326887  1
  Sb  Sb4  1  0.07057146  0.57644889  0.63673094  1
  Sb  Sb5  1  0.81499971  0.33929432  0.71908406  1
  Sb  Sb6  1  0.18500005  0.83929417  0.78091639  1
  Sb  Sb7  1  0.92942702  0.07644904  0.86326951  1
