# generated using pymatgen
data_3988_Ag4Ba2
_symmetry_space_group_name_H-M   'Imma'
_cell_length_a   6.40979020
_cell_length_b   6.40979020
_cell_length_c   6.40979020
_cell_angle_alpha   133.93191219
_cell_angle_beta   101.04115876
_cell_angle_gamma   96.58533256
_chemical_formula_structural   Ag4Ba2
_chemical_formula_sum   'Ag4 Ba2'
_cell_volume   174.35424917
loop_
 _symmetry_equiv_pos_site_id
 _symmetry_equiv_pos_as_xyz
  1  'x, y, z'
loop_
 _atom_type_symbol
  Ag
  Ba
loop_
 _atom_site_type_symbol
 _atom_site_label
 _atom_site_symmetry_multiplicity
 _atom_site_fract_x
 _atom_site_fract_y
 _atom_site_fract_z
 _atom_site_occupancy
  Ag  Ag0  1  0.88946046  0.33578308  0.55367738  1
  Ag  Ag1  1  0.28210570  0.33578308  0.94632262  1
  Ag  Ag2  1  0.71789430  0.66421692  0.05367738  1
  Ag  Ag3  1  0.11053954  0.66421692  0.44632262  1
  Ba  Ba0  1  0.29113037  0.04113037  0.25000000  1
  Ba  Ba1  1  0.70886963  0.95886963  0.75000000  1
