# generated using pymatgen
data_3989_K3V
_symmetry_space_group_name_H-M   'Imm2'
_cell_length_a   8.06920802
_cell_length_b   8.06920802
_cell_length_c   8.06920802
_cell_angle_alpha   152.94121839
_cell_angle_beta   126.60074519
_cell_angle_gamma   60.87112895
_chemical_formula_structural   K3V
_chemical_formula_sum   'K3 V1'
_cell_volume   190.46788299
loop_
 _symmetry_equiv_pos_site_id
 _symmetry_equiv_pos_as_xyz
  1  'x, y, z'
loop_
 _atom_type_symbol
  K
  V
loop_
 _atom_site_type_symbol
 _atom_site_label
 _atom_site_symmetry_multiplicity
 _atom_site_fract_x
 _atom_site_fract_y
 _atom_site_fract_z
 _atom_site_occupancy
  K  K0  1  0.05566654  0.03760837  0.01805817  1
  K  K1  1  0.48044980  0.46239163  0.01805817  1
  K  K2  1  0.87243823  0.25000000  0.62243823  1
  V  V0  1  0.42477877  0.75000000  0.67477877  1
