# generated using pymatgen
data_3996_Mo12W4
_symmetry_space_group_name_H-M   'Pnma'
_cell_length_a   5.26509518
_cell_length_b   9.23012633
_cell_length_c   5.33570422
_cell_angle_alpha   90.00000000
_cell_angle_beta   90.00000000
_cell_angle_gamma   90.00000000
_chemical_formula_structural   Mo12W4
_chemical_formula_sum   'Mo12 W4'
_cell_volume   259.30185195
loop_
 _symmetry_equiv_pos_site_id
 _symmetry_equiv_pos_as_xyz
  1  'x, y, z'
loop_
 _atom_type_symbol
  Mo
  W
loop_
 _atom_site_type_symbol
 _atom_site_label
 _atom_site_symmetry_multiplicity
 _atom_site_fract_x
 _atom_site_fract_y
 _atom_site_fract_z
 _atom_site_occupancy
  Mo  Mo0  1  0.01655607  0.25000000  0.80522147  1
  Mo  Mo1  1  0.25044419  0.99957769  0.42914724  1
  Mo  Mo2  1  0.25044419  0.50042231  0.42914724  1
  Mo  Mo3  1  0.24955581  0.49957769  0.92914724  1
  Mo  Mo4  1  0.24955581  0.00042231  0.92914724  1
  Mo  Mo5  1  0.48344393  0.75000000  0.30522147  1
  Mo  Mo6  1  0.51655607  0.25000000  0.69477853  1
  Mo  Mo7  1  0.75044419  0.99957769  0.07085276  1
  Mo  Mo8  1  0.75044419  0.50042231  0.07085276  1
  Mo  Mo9  1  0.74955581  0.49957769  0.57085276  1
  Mo  Mo10  1  0.74955581  0.00042231  0.57085276  1
  Mo  Mo11  1  0.98344393  0.75000000  0.19477853  1
  W  W0  1  0.99033365  0.75000000  0.69824036  1
  W  W1  1  0.50966635  0.25000000  0.19824036  1
  W  W2  1  0.49033365  0.75000000  0.80175964  1
  W  W3  1  0.00966635  0.25000000  0.30175964  1
