# generated using pymatgen
data_3997_Mn3Ta
_symmetry_space_group_name_H-M   'Immm'
_cell_length_a   3.00360990
_cell_length_b   4.85820015
_cell_length_c   4.20014626
_cell_angle_alpha   115.76997236
_cell_angle_beta   90.00000000
_cell_angle_gamma   71.99332166
_chemical_formula_structural   Mn3Ta
_chemical_formula_sum   'Mn3 Ta1'
_cell_volume   51.84002747
loop_
 _symmetry_equiv_pos_site_id
 _symmetry_equiv_pos_as_xyz
  1  'x, y, z'
loop_
 _atom_type_symbol
  Mn
  Ta
loop_
 _atom_site_type_symbol
 _atom_site_label
 _atom_site_symmetry_multiplicity
 _atom_site_fract_x
 _atom_site_fract_y
 _atom_site_fract_z
 _atom_site_occupancy
  Mn  Mn0  1  0.00848105  0.98303791  0.99225537  1
  Mn  Mn1  1  0.49151895  0.01696209  0.50774463  1
  Mn  Mn2  1  0.75000000  0.50000000  0.75000000  1
  Ta  Ta0  1  0.25000000  0.50000000  0.25000000  1
