# generated using pymatgen
data_3998_AgSr2
_symmetry_space_group_name_H-M   'I4/mmm'
_cell_length_a   7.66485884
_cell_length_b   7.66485884
_cell_length_c   5.64886858
_cell_angle_alpha   90.00000000
_cell_angle_beta   90.00000000
_cell_angle_gamma   136.67238532
_chemical_formula_structural   AgSr2
_chemical_formula_sum   'Ag2 Sr4'
_cell_volume   227.71986036
loop_
 _symmetry_equiv_pos_site_id
 _symmetry_equiv_pos_as_xyz
  1  'x, y, z'
loop_
 _atom_type_symbol
  Ag
  Sr
loop_
 _atom_site_type_symbol
 _atom_site_label
 _atom_site_symmetry_multiplicity
 _atom_site_fract_x
 _atom_site_fract_y
 _atom_site_fract_z
 _atom_site_occupancy
  Ag  Ag0  1  0.97259206  0.02740794  0.00000000  1
  Ag  Ag1  1  0.47185238  0.52814762  0.50000000  1
  Sr  Sr0  1  0.33867623  0.66132377  0.00000000  1
  Sr  Sr1  1  0.60690415  0.39309585  0.00000000  1
  Sr  Sr2  1  0.83754029  0.16245971  0.50000000  1
  Sr  Sr3  1  0.10576821  0.89423179  0.50000000  1
