# generated using pymatgen
data_3999_GaAs3
_symmetry_space_group_name_H-M   'Imm2'
_cell_length_a   5.81595591
_cell_length_b   5.81595591
_cell_length_c   5.81595591
_cell_angle_alpha   150.35645844
_cell_angle_beta   127.10424896
_cell_angle_gamma   61.81068237
_chemical_formula_structural   GaAs3
_chemical_formula_sum   'As3 Ga1'
_cell_volume   76.92652180
loop_
 _symmetry_equiv_pos_site_id
 _symmetry_equiv_pos_as_xyz
  1  'x, y, z'
loop_
 _atom_type_symbol
  As
  Ga
loop_
 _atom_site_type_symbol
 _atom_site_label
 _atom_site_symmetry_multiplicity
 _atom_site_fract_x
 _atom_site_fract_y
 _atom_site_fract_z
 _atom_site_occupancy
  As  As0  1  0.00077548  0.00195839  0.99881710  1
  As  As1  1  0.49685871  0.49804161  0.99881710  1
  As  As2  1  0.91726157  0.25000000  0.66726157  1
  Ga  Ga0  1  0.41843757  0.75000000  0.66843757  1
