# generated using pymatgen
data_39_CrTa3
_symmetry_space_group_name_H-M   'Immm'
_cell_length_a   4.60313388
_cell_length_b   5.32710489
_cell_length_c   3.19539231
_cell_angle_alpha   72.54730495
_cell_angle_beta   90.00000000
_cell_angle_gamma   115.59762469
_chemical_formula_structural   CrTa3
_chemical_formula_sum   'Cr1 Ta3'
_cell_volume   66.64280382
loop_
 _symmetry_equiv_pos_site_id
 _symmetry_equiv_pos_as_xyz
  1  'x, y, z'
loop_
 _atom_type_symbol
  Cr
  Ta
loop_
 _atom_site_type_symbol
 _atom_site_label
 _atom_site_symmetry_multiplicity
 _atom_site_fract_x
 _atom_site_fract_y
 _atom_site_fract_z
 _atom_site_occupancy
  Cr  Cr0  1  0.00000000  0.00000000  0.00000000  1
  Ta  Ta0  1  0.23498262  0.46996525  0.26501738  1
  Ta  Ta1  1  0.50000000  0.00000000  0.50000000  1
  Ta  Ta2  1  0.76501738  0.53003475  0.73498262  1
