# generated using pymatgen
data_3_Mn4Sb2
_symmetry_space_group_name_H-M   'I4_1/amd'
_cell_length_a   7.11943462
_cell_length_b   7.11943462
_cell_length_c   7.11943462
_cell_angle_alpha   149.41409711
_cell_angle_beta   149.44312438
_cell_angle_gamma   43.78079681
_chemical_formula_structural   Mn4Sb2
_chemical_formula_sum   'Mn4 Sb2'
_cell_volume   93.08805482
loop_
 _symmetry_equiv_pos_site_id
 _symmetry_equiv_pos_as_xyz
  1  'x, y, z'
loop_
 _atom_type_symbol
  Mn
  Sb
loop_
 _atom_site_type_symbol
 _atom_site_label
 _atom_site_symmetry_multiplicity
 _atom_site_fract_x
 _atom_site_fract_y
 _atom_site_fract_z
 _atom_site_occupancy
  Mn  Mn0  1  0.70894703  0.95894703  0.75000000  1
  Mn  Mn1  1  0.29105297  0.04105297  0.25000000  1
  Mn  Mn2  1  0.54122776  0.79122776  0.75000000  1
  Mn  Mn3  1  0.45877224  0.20877224  0.25000000  1
  Sb  Sb0  1  0.12502642  0.37502642  0.75000000  1
  Sb  Sb1  1  0.87497358  0.62497358  0.25000000  1
