# generated using pymatgen
data_4000_MnTa2
_symmetry_space_group_name_H-M   'Fmmm'
_cell_length_a   6.77949696
_cell_length_b   6.56763666
_cell_length_c   2.82647265
_cell_angle_alpha   81.99721636
_cell_angle_beta   73.59721542
_cell_angle_gamma   24.38879750
_chemical_formula_structural   MnTa2
_chemical_formula_sum   'Mn1 Ta2'
_cell_volume   47.58956265
loop_
 _symmetry_equiv_pos_site_id
 _symmetry_equiv_pos_as_xyz
  1  'x, y, z'
loop_
 _atom_type_symbol
  Mn
  Ta
loop_
 _atom_site_type_symbol
 _atom_site_label
 _atom_site_symmetry_multiplicity
 _atom_site_fract_x
 _atom_site_fract_y
 _atom_site_fract_z
 _atom_site_occupancy
  Mn  Mn0  1  0.00000000  0.00000000  0.00000000  1
  Ta  Ta0  1  0.34451057  0.34459140  0.65546636  1
  Ta  Ta1  1  0.65548943  0.65540860  0.34453364  1
