# generated using pymatgen
data_4014_Ta2P6
_symmetry_space_group_name_H-M   'I4/mmm'
_cell_length_a   12.07856478
_cell_length_b   12.07856478
_cell_length_c   12.07856478
_cell_angle_alpha   164.00093013
_cell_angle_beta   164.00093013
_cell_angle_gamma   22.70085348
_chemical_formula_structural   Ta2P6
_chemical_formula_sum   'P6 Ta2'
_cell_volume   133.84071906
loop_
 _symmetry_equiv_pos_site_id
 _symmetry_equiv_pos_as_xyz
  1  'x, y, z'
loop_
 _atom_type_symbol
  P
  Ta
loop_
 _atom_site_type_symbol
 _atom_site_label
 _atom_site_symmetry_multiplicity
 _atom_site_fract_x
 _atom_site_fract_y
 _atom_site_fract_z
 _atom_site_occupancy
  P  P0  1  0.00000000  0.50000000  0.50000000  1
  P  P1  1  0.50000000  0.00000000  0.50000000  1
  P  P2  1  0.25000000  0.75000000  0.50000000  1
  P  P3  1  0.75000000  0.25000000  0.50000000  1
  P  P4  1  0.12179511  0.12179511  0.00000000  1
  P  P5  1  0.87820489  0.87820489  0.00000000  1
  Ta  Ta0  1  0.33092077  0.33092077  0.00000000  1
  Ta  Ta1  1  0.66907923  0.66907923  0.00000000  1
