# generated using pymatgen
data_4015_Ta5Sb4
_symmetry_space_group_name_H-M   'I4/m'
_cell_length_a   7.55244547
_cell_length_b   7.55244547
_cell_length_c   7.55244547
_cell_angle_alpha   92.91472644
_cell_angle_beta   92.91472644
_cell_angle_gamma   153.93559722
_chemical_formula_structural   Ta5Sb4
_chemical_formula_sum   'Sb4 Ta5'
_cell_volume   184.40458946
loop_
 _symmetry_equiv_pos_site_id
 _symmetry_equiv_pos_as_xyz
  1  'x, y, z'
loop_
 _atom_type_symbol
  Sb
  Ta
loop_
 _atom_site_type_symbol
 _atom_site_label
 _atom_site_symmetry_multiplicity
 _atom_site_fract_x
 _atom_site_fract_y
 _atom_site_fract_z
 _atom_site_occupancy
  Sb  Sb0  1  0.36382833  0.67681498  0.04064331  1
  Sb  Sb1  1  0.63617167  0.32318502  0.95935669  1
  Sb  Sb2  1  0.32318502  0.36382833  0.68701335  1
  Sb  Sb3  1  0.67681498  0.63617167  0.31298665  1
  Ta  Ta0  1  0.00000000  0.00000000  0.00000000  1
  Ta  Ta1  1  0.34990443  0.95439258  0.30429701  1
  Ta  Ta2  1  0.65009557  0.04560742  0.69570299  1
  Ta  Ta3  1  0.04560742  0.34990443  0.39551184  1
  Ta  Ta4  1  0.95439258  0.65009557  0.60448816  1
