# generated using pymatgen
data_4019_Mo4W4
_symmetry_space_group_name_H-M   'Pnma'
_cell_length_a   5.39929759
_cell_length_b   4.60320959
_cell_length_c   5.27049526
_cell_angle_alpha   90.00000000
_cell_angle_beta   90.00000000
_cell_angle_gamma   90.00000000
_chemical_formula_structural   Mo4W4
_chemical_formula_sum   'Mo4 W4'
_cell_volume   130.99340805
loop_
 _symmetry_equiv_pos_site_id
 _symmetry_equiv_pos_as_xyz
  1  'x, y, z'
loop_
 _atom_type_symbol
  Mo
  W
loop_
 _atom_site_type_symbol
 _atom_site_label
 _atom_site_symmetry_multiplicity
 _atom_site_fract_x
 _atom_site_fract_y
 _atom_site_fract_z
 _atom_site_occupancy
  Mo  Mo0  1  0.10345419  0.25000000  0.15578450  1
  Mo  Mo1  1  0.39654581  0.75000000  0.65578450  1
  Mo  Mo2  1  0.60345419  0.25000000  0.34421550  1
  Mo  Mo3  1  0.89654581  0.75000000  0.84421550  1
  W  W0  1  0.10128612  0.25000000  0.65572490  1
  W  W1  1  0.39871388  0.75000000  0.15572490  1
  W  W2  1  0.60128612  0.25000000  0.84427510  1
  W  W3  1  0.89871388  0.75000000  0.34427510  1
