# generated using pymatgen
data_4020_Pt2V4
_symmetry_space_group_name_H-M   'Cmcm'
_cell_length_a   2.85315393
_cell_length_b   6.76682696
_cell_length_c   4.59795935
_cell_angle_alpha   90.00000000
_cell_angle_beta   90.00000000
_cell_angle_gamma   77.82963689
_chemical_formula_structural   Pt2V4
_chemical_formula_sum   'Pt2 V4'
_cell_volume   86.77673526
loop_
 _symmetry_equiv_pos_site_id
 _symmetry_equiv_pos_as_xyz
  1  'x, y, z'
loop_
 _atom_type_symbol
  Pt
  V
loop_
 _atom_site_type_symbol
 _atom_site_label
 _atom_site_symmetry_multiplicity
 _atom_site_fract_x
 _atom_site_fract_y
 _atom_site_fract_z
 _atom_site_occupancy
  Pt  Pt0  1  0.99105940  0.01788120  0.00000000  1
  Pt  Pt1  1  0.56449616  0.87100769  0.50000000  1
  V  V0  1  0.66855457  0.66289085  0.00000000  1
  V  V1  1  0.31940742  0.36118515  0.00000000  1
  V  V2  1  0.23614813  0.52770374  0.50000000  1
  V  V3  1  0.88700098  0.22599803  0.50000000  1
