# generated using pymatgen
data_4035_Al3In
_symmetry_space_group_name_H-M   'Fm -3 m'
_cell_length_a   4.80567305
_cell_length_b   4.80567305
_cell_length_c   4.80567305
_cell_angle_alpha   60.00000000
_cell_angle_beta   60.00000000
_cell_angle_gamma   60.00000000
_chemical_formula_structural   Al3In
_chemical_formula_sum   'Al3 In1'
_cell_volume   78.47795242
loop_
 _symmetry_equiv_pos_site_id
 _symmetry_equiv_pos_as_xyz
  1  'x, y, z'
loop_
 _atom_type_symbol
  Al
  In
loop_
 _atom_site_type_symbol
 _atom_site_label
 _atom_site_symmetry_multiplicity
 _atom_site_fract_x
 _atom_site_fract_y
 _atom_site_fract_z
 _atom_site_occupancy
  Al  Al0  1  0.00000000  0.00000000  0.00000000  1
  Al  Al1  1  0.24999974  0.24999974  0.24999974  1
  Al  Al2  1  0.49999947  0.49999947  0.49999947  1
  In  In0  1  0.75000068  0.75000068  0.75000068  1
