# generated using pymatgen
data_4036_Na6Pd2
_symmetry_space_group_name_H-M   'I4/mmm'
_cell_length_a   9.37922080
_cell_length_b   9.37922080
_cell_length_c   9.37922080
_cell_angle_alpha   151.42841532
_cell_angle_beta   151.42841532
_cell_angle_gamma   40.84859928
_chemical_formula_structural   Na6Pd2
_chemical_formula_sum   'Na6 Pd2'
_cell_volume   188.32458102
loop_
 _symmetry_equiv_pos_site_id
 _symmetry_equiv_pos_as_xyz
  1  'x, y, z'
loop_
 _atom_type_symbol
  Na
  Pd
loop_
 _atom_site_type_symbol
 _atom_site_label
 _atom_site_symmetry_multiplicity
 _atom_site_fract_x
 _atom_site_fract_y
 _atom_site_fract_z
 _atom_site_occupancy
  Na  Na0  1  0.00000000  0.50000000  0.50000000  1
  Na  Na1  1  0.50000000  0.00000000  0.50000000  1
  Na  Na2  1  0.25000000  0.75000000  0.50000000  1
  Na  Na3  1  0.75000000  0.25000000  0.50000000  1
  Na  Na4  1  0.12745176  0.12745176  0.00000000  1
  Na  Na5  1  0.87254824  0.87254824  0.00000000  1
  Pd  Pd0  1  0.37312259  0.37312259  0.00000000  1
  Pd  Pd1  1  0.62687741  0.62687741  0.00000000  1
