# generated using pymatgen
data_4050_Au3Ni
_symmetry_space_group_name_H-M   'Cmmm'
_cell_length_a   2.84752937
_cell_length_b   2.84752937
_cell_length_c   8.03646438
_cell_angle_alpha   90.00000000
_cell_angle_beta   90.00000000
_cell_angle_gamma   93.40561474
_chemical_formula_structural   Au3Ni
_chemical_formula_sum   'Au3 Ni1'
_cell_volume   65.04797958
loop_
 _symmetry_equiv_pos_site_id
 _symmetry_equiv_pos_as_xyz
  1  'x, y, z'
loop_
 _atom_type_symbol
  Au
  Ni
loop_
 _atom_site_type_symbol
 _atom_site_label
 _atom_site_symmetry_multiplicity
 _atom_site_fract_x
 _atom_site_fract_y
 _atom_site_fract_z
 _atom_site_occupancy
  Au  Au0  1  1.00000000  0.00000000  0.02710350  1
  Au  Au1  1  0.00000000  1.00000000  0.47289650  1
  Au  Au2  1  0.50000000  0.50000000  0.75000000  1
  Ni  Ni0  1  0.50000000  0.50000000  0.25000000  1
