# generated using pymatgen
data_4055_Al16As8
_symmetry_space_group_name_H-M   'Fd -3 m'
_cell_length_a   8.59323233
_cell_length_b   8.59323233
_cell_length_c   8.59323233
_cell_angle_alpha   60.00000000
_cell_angle_beta   60.00000000
_cell_angle_gamma   60.00000000
_chemical_formula_structural   Al16As8
_chemical_formula_sum   'Al16 As8'
_cell_volume   448.69854648
loop_
 _symmetry_equiv_pos_site_id
 _symmetry_equiv_pos_as_xyz
  1  'x, y, z'
loop_
 _atom_type_symbol
  Al
  As
loop_
 _atom_site_type_symbol
 _atom_site_label
 _atom_site_symmetry_multiplicity
 _atom_site_fract_x
 _atom_site_fract_y
 _atom_site_fract_z
 _atom_site_occupancy
  Al  Al0  1  0.00000000  0.50000000  0.50000000  1
  Al  Al1  1  0.00000000  0.50000000  0.00000000  1
  Al  Al2  1  0.00000000  0.00000000  0.50000000  1
  Al  Al3  1  0.50000000  0.50000000  0.50000000  1
  Al  Al4  1  0.20767176  0.70767176  0.04232824  1
  Al  Al5  1  0.20767176  0.04232824  0.70767176  1
  Al  Al6  1  0.20767176  0.04232824  0.04232824  1
  Al  Al7  1  0.54232824  0.70767176  0.70767176  1
  Al  Al8  1  0.54232824  0.70767176  0.04232824  1
  Al  Al9  1  0.54232824  0.04232824  0.70767176  1
  Al  Al10  1  0.79232824  0.29232824  0.95767176  1
  Al  Al11  1  0.79232824  0.95767176  0.29232824  1
  Al  Al12  1  0.79232824  0.95767176  0.95767176  1
  Al  Al13  1  0.45767176  0.29232824  0.29232824  1
  Al  Al14  1  0.45767176  0.29232824  0.95767176  1
  Al  Al15  1  0.45767176  0.95767176  0.29232824  1
  As  As0  1  0.16405164  0.27864945  0.27864945  1
  As  As1  1  0.77864945  0.66405164  0.27864945  1
  As  As2  1  0.77864945  0.27864945  0.66405164  1
  As  As3  1  0.77864945  0.27864945  0.27864945  1
  As  As4  1  0.83594836  0.72135055  0.72135055  1
  As  As5  1  0.22135055  0.33594836  0.72135055  1
  As  As6  1  0.22135055  0.72135055  0.33594836  1
  As  As7  1  0.22135055  0.72135055  0.72135055  1
