# generated using pymatgen
data_4056_Ni6As4
_symmetry_space_group_name_H-M   'Fdd2'
_cell_length_a   7.76378068
_cell_length_b   5.92606870
_cell_length_c   5.91889936
_cell_angle_alpha   81.90748954
_cell_angle_beta   49.08621408
_cell_angle_gamma   49.00629638
_chemical_formula_structural   Ni6As4
_chemical_formula_sum   'As4 Ni6'
_cell_volume   133.93921959
loop_
 _symmetry_equiv_pos_site_id
 _symmetry_equiv_pos_as_xyz
  1  'x, y, z'
loop_
 _atom_type_symbol
  As
  Ni
loop_
 _atom_site_type_symbol
 _atom_site_label
 _atom_site_symmetry_multiplicity
 _atom_site_fract_x
 _atom_site_fract_y
 _atom_site_fract_z
 _atom_site_occupancy
  As  As0  1  0.23394744  0.86133720  0.41915098  1
  As  As1  1  0.48556438  0.41915098  0.86133720  1
  As  As2  1  0.38866280  0.01605256  0.76443562  1
  As  As3  1  0.83084902  0.76443562  0.01605256  1
  Ni  Ni0  1  0.76918316  0.46141653  0.33756998  1
  Ni  Ni1  1  0.43183033  0.33756998  0.46141653  1
  Ni  Ni2  1  0.78858347  0.48081684  0.81816967  1
  Ni  Ni3  1  0.91243002  0.81816967  0.48081684  1
  Ni  Ni4  1  0.07947469  0.92052531  0.92052531  1
  Ni  Ni5  1  0.32947469  0.17052531  0.17052531  1
