# generated using pymatgen
data_4060_VAs5
_symmetry_space_group_name_H-M   'Amm2'
_cell_length_a   7.59707866
_cell_length_b   7.59707866
_cell_length_c   4.86815936
_cell_angle_alpha   90.00000000
_cell_angle_beta   90.00000000
_cell_angle_gamma   154.98374792
_chemical_formula_structural   VAs5
_chemical_formula_sum   'As5 V1'
_cell_volume   118.81475400
loop_
 _symmetry_equiv_pos_site_id
 _symmetry_equiv_pos_as_xyz
  1  'x, y, z'
loop_
 _atom_type_symbol
  As
  V
loop_
 _atom_site_type_symbol
 _atom_site_label
 _atom_site_symmetry_multiplicity
 _atom_site_fract_x
 _atom_site_fract_y
 _atom_site_fract_z
 _atom_site_occupancy
  As  As0  1  0.02412609  0.97587391  0.00000000  1
  As  As1  1  0.37923862  0.62076138  0.00000000  1
  As  As2  1  0.66239442  0.33760558  0.00000000  1
  As  As3  1  0.45583310  0.54416690  0.50000000  1
  As  As4  1  0.72354864  0.27645136  0.50000000  1
  V  V0  1  0.08819247  0.91180753  0.50000000  1
