# generated using pymatgen
data_4065_Mo4Rh2
_symmetry_space_group_name_H-M   'Pnnm'
_cell_length_a   3.22544586
_cell_length_b   7.59121022
_cell_length_c   3.74308640
_cell_angle_alpha   90.00000000
_cell_angle_beta   90.00000000
_cell_angle_gamma   90.00000000
_chemical_formula_structural   Mo4Rh2
_chemical_formula_sum   'Mo4 Rh2'
_cell_volume   91.64961116
loop_
 _symmetry_equiv_pos_site_id
 _symmetry_equiv_pos_as_xyz
  1  'x, y, z'
loop_
 _atom_type_symbol
  Mo
  Rh
loop_
 _atom_site_type_symbol
 _atom_site_label
 _atom_site_symmetry_multiplicity
 _atom_site_fract_x
 _atom_site_fract_y
 _atom_site_fract_z
 _atom_site_occupancy
  Mo  Mo0  1  0.19165406  0.33317566  0.00000000  1
  Mo  Mo1  1  0.30834594  0.83317566  0.50000000  1
  Mo  Mo2  1  0.69165406  0.16682434  0.50000000  1
  Mo  Mo3  1  0.80834594  0.66682434  0.00000000  1
  Rh  Rh0  1  0.00000000  0.00000000  0.00000000  1
  Rh  Rh1  1  0.50000000  0.50000000  0.50000000  1
