# generated using pymatgen
data_4068_Ni4Ge5
_symmetry_space_group_name_H-M   'I4/mmm'
_cell_length_a   6.00909577
_cell_length_b   6.00909577
_cell_length_c   6.00909577
_cell_angle_alpha   96.50772878
_cell_angle_beta   96.50772878
_cell_angle_gamma   140.65346443
_chemical_formula_structural   Ni4Ge5
_chemical_formula_sum   'Ge5 Ni4'
_cell_volume   129.53948138
loop_
 _symmetry_equiv_pos_site_id
 _symmetry_equiv_pos_as_xyz
  1  'x, y, z'
loop_
 _atom_type_symbol
  Ge
  Ni
loop_
 _atom_site_type_symbol
 _atom_site_label
 _atom_site_symmetry_multiplicity
 _atom_site_fract_x
 _atom_site_fract_y
 _atom_site_fract_z
 _atom_site_occupancy
  Ge  Ge0  1  0.00000000  0.00000000  0.00000000  1
  Ge  Ge1  1  0.67713721  0.32286279  0.00000000  1
  Ge  Ge2  1  0.32286279  0.67713721  0.00000000  1
  Ge  Ge3  1  0.32286279  0.32286279  0.64572559  1
  Ge  Ge4  1  0.67713721  0.67713721  0.35427441  1
  Ni  Ni0  1  0.66260540  1.00000000  0.66260540  1
  Ni  Ni1  1  0.33739460  0.00000000  0.33739460  1
  Ni  Ni2  1  0.00000000  0.33739460  0.33739460  1
  Ni  Ni3  1  1.00000000  0.66260540  0.66260540  1
