# generated using pymatgen
data_4071_Fe4As
_symmetry_space_group_name_H-M   'I4/mmm'
_cell_length_a   6.85641187
_cell_length_b   6.85641187
_cell_length_c   6.85641187
_cell_angle_alpha   153.22336886
_cell_angle_beta   153.22336886
_cell_angle_gamma   38.22941726
_chemical_formula_structural   Fe4As
_chemical_formula_sum   'As1 Fe4'
_cell_volume   65.31428224
loop_
 _symmetry_equiv_pos_site_id
 _symmetry_equiv_pos_as_xyz
  1  'x, y, z'
loop_
 _atom_type_symbol
  As
  Fe
loop_
 _atom_site_type_symbol
 _atom_site_label
 _atom_site_symmetry_multiplicity
 _atom_site_fract_x
 _atom_site_fract_y
 _atom_site_fract_z
 _atom_site_occupancy
  As  As0  1  0.00000000  0.00000000  0.00000000  1
  Fe  Fe0  1  0.25000000  0.75000000  0.50000000  1
  Fe  Fe1  1  0.75000000  0.25000000  0.50000000  1
  Fe  Fe2  1  0.59960531  0.59960531  0.00000000  1
  Fe  Fe3  1  0.40039469  0.40039469  0.00000000  1
