# generated using pymatgen
data_4072_KPd5
_symmetry_space_group_name_H-M   'Cmmm'
_cell_length_a   6.50519585
_cell_length_b   6.50519585
_cell_length_c   4.11708898
_cell_angle_alpha   90.00000000
_cell_angle_beta   90.00000000
_cell_angle_gamma   142.83939771
_chemical_formula_structural   KPd5
_chemical_formula_sum   'K1 Pd5'
_cell_volume   105.24096016
loop_
 _symmetry_equiv_pos_site_id
 _symmetry_equiv_pos_as_xyz
  1  'x, y, z'
loop_
 _atom_type_symbol
  K
  Pd
loop_
 _atom_site_type_symbol
 _atom_site_label
 _atom_site_symmetry_multiplicity
 _atom_site_fract_x
 _atom_site_fract_y
 _atom_site_fract_z
 _atom_site_occupancy
  K  K0  1  0.97228894  0.02771106  0.00000000  1
  Pd  Pd0  1  0.79573113  0.20426887  0.50000000  1
  Pd  Pd1  1  0.64781951  0.35218049  0.00000000  1
  Pd  Pd2  1  0.47212601  0.52787399  0.50000000  1
  Pd  Pd3  1  0.29670968  0.70329032  0.00000000  1
  Pd  Pd4  1  0.14865805  0.85134195  0.50000000  1
