# generated using pymatgen
data_4074_K2Mo2
_symmetry_space_group_name_H-M   'Imma'
_cell_length_a   7.06373583
_cell_length_b   7.06373583
_cell_length_c   7.06373583
_cell_angle_alpha   153.21036900
_cell_angle_beta   124.53568508
_cell_angle_gamma   62.63955158
_chemical_formula_structural   K2Mo2
_chemical_formula_sum   'K2 Mo2'
_cell_volume   129.83252193
loop_
 _symmetry_equiv_pos_site_id
 _symmetry_equiv_pos_as_xyz
  1  'x, y, z'
loop_
 _atom_type_symbol
  K
  Mo
loop_
 _atom_site_type_symbol
 _atom_site_label
 _atom_site_symmetry_multiplicity
 _atom_site_fract_x
 _atom_site_fract_y
 _atom_site_fract_z
 _atom_site_occupancy
  K  K0  1  0.02392861  0.02392861  1.00000000  1
  K  K1  1  0.72607139  0.22607139  0.50000000  1
  Mo  Mo0  1  0.44206139  0.44206139  1.00000000  1
  Mo  Mo1  1  0.30793861  0.80793861  0.50000000  1
