# generated using pymatgen
data_4075_GaPb3
_symmetry_space_group_name_H-M   'P4/mmm'
_cell_length_a   3.58966525
_cell_length_b   3.58966525
_cell_length_c   8.98351962
_cell_angle_alpha   90.00000000
_cell_angle_beta   90.00000000
_cell_angle_gamma   90.00000000
_chemical_formula_structural   GaPb3
_chemical_formula_sum   'Ga1 Pb3'
_cell_volume   115.75890829
loop_
 _symmetry_equiv_pos_site_id
 _symmetry_equiv_pos_as_xyz
  1  'x, y, z'
loop_
 _atom_type_symbol
  Ga
  Pb
loop_
 _atom_site_type_symbol
 _atom_site_label
 _atom_site_symmetry_multiplicity
 _atom_site_fract_x
 _atom_site_fract_y
 _atom_site_fract_z
 _atom_site_occupancy
  Ga  Ga0  1  0.00000000  0.00000000  0.00000000  1
  Pb  Pb0  1  0.50000000  0.50000000  0.22540480  1
  Pb  Pb1  1  0.00000000  0.00000000  0.50000000  1
  Pb  Pb2  1  0.50000000  0.50000000  0.77459520  1
