# generated using pymatgen
data_4077_Mo4Rh8
_symmetry_space_group_name_H-M   'I4_1/amd'
_cell_length_a   3.88793725
_cell_length_b   3.88793725
_cell_length_c   11.90423135
_cell_angle_alpha   80.60147045
_cell_angle_beta   80.60147045
_cell_angle_gamma   90.00000000
_chemical_formula_structural   Mo4Rh8
_chemical_formula_sum   'Mo4 Rh8'
_cell_volume   175.08066860
loop_
 _symmetry_equiv_pos_site_id
 _symmetry_equiv_pos_as_xyz
  1  'x, y, z'
loop_
 _atom_type_symbol
  Mo
  Rh
loop_
 _atom_site_type_symbol
 _atom_site_label
 _atom_site_symmetry_multiplicity
 _atom_site_fract_x
 _atom_site_fract_y
 _atom_site_fract_z
 _atom_site_occupancy
  Mo  Mo0  1  0.91624425  0.91624425  0.16751151  1
  Mo  Mo1  1  0.08375575  0.08375575  0.83248849  1
  Mo  Mo2  1  0.66624425  0.16624425  0.66751151  1
  Mo  Mo3  1  0.83375575  0.33375575  0.33248849  1
  Rh  Rh0  1  0.74851055  0.74851055  0.50297890  1
  Rh  Rh1  1  0.25148945  0.25148945  0.49702110  1
  Rh  Rh2  1  0.49851055  0.99851055  0.00297890  1
  Rh  Rh3  1  0.00148945  0.50148945  0.99702110  1
  Rh  Rh4  1  0.58336135  0.58336135  0.83327730  1
  Rh  Rh5  1  0.41663865  0.41663865  0.16672270  1
  Rh  Rh6  1  0.33336135  0.83336135  0.33327730  1
  Rh  Rh7  1  0.16663865  0.66663865  0.66672270  1
