# generated using pymatgen
data_4078_Cu16In4
_symmetry_space_group_name_H-M   'I-43m'
_cell_length_a   7.28057617
_cell_length_b   7.28057617
_cell_length_c   7.28057617
_cell_angle_alpha   109.47122063
_cell_angle_beta   109.47122063
_cell_angle_gamma   109.47122063
_chemical_formula_structural   Cu16In4
_chemical_formula_sum   'Cu16 In4'
_cell_volume   297.08132917
loop_
 _symmetry_equiv_pos_site_id
 _symmetry_equiv_pos_as_xyz
  1  'x, y, z'
loop_
 _atom_type_symbol
  Cu
  In
loop_
 _atom_site_type_symbol
 _atom_site_label
 _atom_site_symmetry_multiplicity
 _atom_site_fract_x
 _atom_site_fract_y
 _atom_site_fract_z
 _atom_site_occupancy
  Cu  Cu0  1  0.00000000  0.00000000  0.21530487  1
  Cu  Cu1  1  0.00000000  0.21530487  0.00000000  1
  Cu  Cu2  1  0.21530487  0.00000000  0.00000000  1
  Cu  Cu3  1  0.78469513  0.78469513  0.78469513  1
  Cu  Cu4  1  0.64807310  0.64807310  0.00000000  1
  Cu  Cu5  1  0.35192690  0.35192690  0.00000000  1
  Cu  Cu6  1  0.35192690  0.00000000  0.35192690  1
  Cu  Cu7  1  0.64807310  0.00000000  0.64807310  1
  Cu  Cu8  1  0.00000000  0.35192690  0.35192690  1
  Cu  Cu9  1  0.00000000  0.64807310  0.64807310  1
  Cu  Cu10  1  0.25008597  0.75008597  0.50000000  1
  Cu  Cu11  1  0.74991403  0.24991403  0.50000000  1
  Cu  Cu12  1  0.24991403  0.50000000  0.74991403  1
  Cu  Cu13  1  0.75008597  0.50000000  0.25008597  1
  Cu  Cu14  1  0.50000000  0.74991403  0.24991403  1
  Cu  Cu15  1  0.50000000  0.25008597  0.75008597  1
  In  In0  1  0.00000000  0.00000000  0.57796310  1
  In  In1  1  0.00000000  0.57796310  0.00000000  1
  In  In2  1  0.57796310  0.00000000  0.00000000  1
  In  In3  1  0.42203690  0.42203690  0.42203690  1
