# generated using pymatgen
data_4085_Ga2Mn4
_symmetry_space_group_name_H-M   'I4_1/amd'
_cell_length_a   7.49709995
_cell_length_b   7.49709995
_cell_length_c   7.49709995
_cell_angle_alpha   154.05091588
_cell_angle_beta   154.05091588
_cell_angle_gamma   37.02560354
_chemical_formula_structural   Ga2Mn4
_chemical_formula_sum   'Ga2 Mn4'
_cell_volume   80.56876295
loop_
 _symmetry_equiv_pos_site_id
 _symmetry_equiv_pos_as_xyz
  1  'x, y, z'
loop_
 _atom_type_symbol
  Ga
  Mn
loop_
 _atom_site_type_symbol
 _atom_site_label
 _atom_site_symmetry_multiplicity
 _atom_site_fract_x
 _atom_site_fract_y
 _atom_site_fract_z
 _atom_site_occupancy
  Ga  Ga0  1  0.00000000  0.00000000  0.00000000  1
  Ga  Ga1  1  0.25000000  0.75000000  0.50000000  1
  Mn  Mn0  1  0.57984859  0.57984859  0.00000000  1
  Mn  Mn1  1  0.67015141  0.17015141  0.50000000  1
  Mn  Mn2  1  0.42015141  0.42015141  0.00000000  1
  Mn  Mn3  1  0.82984859  0.32984859  0.50000000  1
