# generated using pymatgen
data_4098_Ca4W4
_symmetry_space_group_name_H-M   'P2_13'
_cell_length_a   5.61856489
_cell_length_b   5.61856489
_cell_length_c   5.61856489
_cell_angle_alpha   90.00000000
_cell_angle_beta   90.00000000
_cell_angle_gamma   90.00000000
_chemical_formula_structural   Ca4W4
_chemical_formula_sum   'Ca4 W4'
_cell_volume   177.36838146
loop_
 _symmetry_equiv_pos_site_id
 _symmetry_equiv_pos_as_xyz
  1  'x, y, z'
loop_
 _atom_type_symbol
  Ca
  W
loop_
 _atom_site_type_symbol
 _atom_site_label
 _atom_site_symmetry_multiplicity
 _atom_site_fract_x
 _atom_site_fract_y
 _atom_site_fract_z
 _atom_site_occupancy
  Ca  Ca0  1  0.59836497  0.59836497  0.40163503  1
  Ca  Ca1  1  0.90163503  0.40163503  0.90163503  1
  Ca  Ca2  1  0.40163503  0.09836497  0.09836497  1
  Ca  Ca3  1  0.09836497  0.90163503  0.59836497  1
  W  W0  1  0.89395153  0.89395153  0.10604847  1
  W  W1  1  0.60604847  0.10604847  0.60604847  1
  W  W2  1  0.10604847  0.39395153  0.39395153  1
  W  W3  1  0.39395153  0.60604847  0.89395153  1
