# generated using pymatgen
data_4112_Pd2Rb
_symmetry_space_group_name_H-M   'I4/mmm'
_cell_length_a   6.43970309
_cell_length_b   6.43970309
_cell_length_c   6.43970309
_cell_angle_alpha   147.37596161
_cell_angle_beta   147.37596161
_cell_angle_gamma   46.80743038
_chemical_formula_structural   Pd2Rb
_chemical_formula_sum   'Pd2 Rb1'
_cell_volume   77.33508773
loop_
 _symmetry_equiv_pos_site_id
 _symmetry_equiv_pos_as_xyz
  1  'x, y, z'
loop_
 _atom_type_symbol
  Pd
  Rb
loop_
 _atom_site_type_symbol
 _atom_site_label
 _atom_site_symmetry_multiplicity
 _atom_site_fract_x
 _atom_site_fract_y
 _atom_site_fract_z
 _atom_site_occupancy
  Pd  Pd0  1  0.27735904  0.27735904  0.00000000  1
  Pd  Pd1  1  0.72264096  0.72264096  0.00000000  1
  Rb  Rb0  1  0.00000000  0.00000000  0.00000000  1
