# generated using pymatgen
data_4118_Mo2Nb2
_symmetry_space_group_name_H-M   'Cmcm'
_cell_length_a   3.14403256
_cell_length_b   5.29201219
_cell_length_c   4.44019525
_cell_angle_alpha   90.00000000
_cell_angle_beta   90.00000000
_cell_angle_gamma   107.28077793
_chemical_formula_structural   Mo2Nb2
_chemical_formula_sum   'Mo2 Nb2'
_cell_volume   70.54234173
loop_
 _symmetry_equiv_pos_site_id
 _symmetry_equiv_pos_as_xyz
  1  'x, y, z'
loop_
 _atom_type_symbol
  Mo
  Nb
loop_
 _atom_site_type_symbol
 _atom_site_label
 _atom_site_symmetry_multiplicity
 _atom_site_fract_x
 _atom_site_fract_y
 _atom_site_fract_z
 _atom_site_occupancy
  Mo  Mo0  1  0.11139204  0.22278408  0.25000000  1
  Mo  Mo1  1  0.88860796  0.77721592  0.75000000  1
  Nb  Nb0  1  0.38050582  0.76101164  0.25000000  1
  Nb  Nb1  1  0.61949418  0.23898836  0.75000000  1
