# generated using pymatgen
data_4124_Al3Ta
_symmetry_space_group_name_H-M   'I4/mmm'
_cell_length_a   3.85748900
_cell_length_b   3.85748900
_cell_length_c   5.07965383
_cell_angle_alpha   112.31509439
_cell_angle_beta   112.31509439
_cell_angle_gamma   90.00000000
_chemical_formula_structural   Al3Ta
_chemical_formula_sum   'Al3 Ta1'
_cell_volume   63.76444196
loop_
 _symmetry_equiv_pos_site_id
 _symmetry_equiv_pos_as_xyz
  1  'x, y, z'
loop_
 _atom_type_symbol
  Al
  Ta
loop_
 _atom_site_type_symbol
 _atom_site_label
 _atom_site_symmetry_multiplicity
 _atom_site_fract_x
 _atom_site_fract_y
 _atom_site_fract_z
 _atom_site_occupancy
  Al  Al0  1  0.00000000  0.00000000  0.00000000  1
  Al  Al1  1  0.74999880  0.24999994  0.49999988  1
  Al  Al2  1  0.24999994  0.74999880  0.49999988  1
  Ta  Ta0  1  0.49999886  0.49999886  0.00000000  1
