# generated using pymatgen
data_4127_Ga2Th
_symmetry_space_group_name_H-M   'P6/mmm'
_cell_length_a   4.26227600
_cell_length_b   4.26227616
_cell_length_c   4.25668600
_cell_angle_alpha   90.00000000
_cell_angle_beta   90.00000000
_cell_angle_gamma   120.00099286
_chemical_formula_structural   Ga2Th
_chemical_formula_sum   'Ga2 Th1'
_cell_volume   66.97011659
loop_
 _symmetry_equiv_pos_site_id
 _symmetry_equiv_pos_as_xyz
  1  'x, y, z'
loop_
 _atom_type_symbol
  Ga
  Th
loop_
 _atom_site_type_symbol
 _atom_site_label
 _atom_site_symmetry_multiplicity
 _atom_site_fract_x
 _atom_site_fract_y
 _atom_site_fract_z
 _atom_site_occupancy
  Ga  Ga0  1  0.66670478  0.33338957  0.49999931  1
  Ga  Ga1  1  0.33338990  0.66670413  0.49999931  1
  Th  Th0  1  0.00000641  0.00000813  0.00000000  1
