# generated using pymatgen
data_4128_Mn8Sb4
_symmetry_space_group_name_H-M   'Pnma'
_cell_length_a   4.05828575
_cell_length_b   5.25987117
_cell_length_c   8.65326176
_cell_angle_alpha   90.00000000
_cell_angle_beta   90.00000000
_cell_angle_gamma   90.00000000
_chemical_formula_structural   Mn8Sb4
_chemical_formula_sum   'Mn8 Sb4'
_cell_volume   184.71304659
loop_
 _symmetry_equiv_pos_site_id
 _symmetry_equiv_pos_as_xyz
  1  'x, y, z'
loop_
 _atom_type_symbol
  Mn
  Sb
loop_
 _atom_site_type_symbol
 _atom_site_label
 _atom_site_symmetry_multiplicity
 _atom_site_fract_x
 _atom_site_fract_y
 _atom_site_fract_z
 _atom_site_occupancy
  Mn  Mn0  1  0.25000000  0.07550184  0.76166703  1
  Mn  Mn1  1  0.75000000  0.42449816  0.26166703  1
  Mn  Mn2  1  0.25000000  0.57550184  0.73833297  1
  Mn  Mn3  1  0.75000000  0.92449816  0.23833297  1
  Mn  Mn4  1  0.25000000  0.17058229  0.43205313  1
  Mn  Mn5  1  0.75000000  0.32941771  0.93205313  1
  Mn  Mn6  1  0.25000000  0.67058229  0.06794687  1
  Mn  Mn7  1  0.75000000  0.82941771  0.56794687  1
  Sb  Sb0  1  0.25000000  0.68060892  0.39093123  1
  Sb  Sb1  1  0.75000000  0.81939108  0.89093123  1
  Sb  Sb2  1  0.25000000  0.18060892  0.10906877  1
  Sb  Sb3  1  0.75000000  0.31939108  0.60906877  1
