# generated using pymatgen
data_4135_Sm3W
_symmetry_space_group_name_H-M   'I4/mmm'
_cell_length_a   5.61143738
_cell_length_b   5.61143738
_cell_length_c   5.61143738
_cell_angle_alpha   128.34342464
_cell_angle_beta   128.34342464
_cell_angle_gamma   76.06935061
_chemical_formula_structural   Sm3W
_chemical_formula_sum   'Sm3 W1'
_cell_volume   105.66602925
loop_
 _symmetry_equiv_pos_site_id
 _symmetry_equiv_pos_as_xyz
  1  'x, y, z'
loop_
 _atom_type_symbol
  Sm
  W
loop_
 _atom_site_type_symbol
 _atom_site_label
 _atom_site_symmetry_multiplicity
 _atom_site_fract_x
 _atom_site_fract_y
 _atom_site_fract_z
 _atom_site_occupancy
  Sm  Sm0  1  0.50000000  0.50000000  0.00000000  1
  Sm  Sm1  1  0.75000000  0.25000000  0.50000000  1
  Sm  Sm2  1  0.25000000  0.75000000  0.50000000  1
  W  W0  1  0.00000000  0.00000000  0.00000000  1
