# generated using pymatgen
data_4137_Pb5P
_symmetry_space_group_name_H-M   'Amm2'
_cell_length_a   8.48713159
_cell_length_b   8.48713159
_cell_length_c   5.70660868
_cell_angle_alpha   90.00000000
_cell_angle_beta   90.00000000
_cell_angle_gamma   154.10853451
_chemical_formula_structural   Pb5P
_chemical_formula_sum   'P1 Pb5'
_cell_volume   179.49449022
loop_
 _symmetry_equiv_pos_site_id
 _symmetry_equiv_pos_as_xyz
  1  'x, y, z'
loop_
 _atom_type_symbol
  P
  Pb
loop_
 _atom_site_type_symbol
 _atom_site_label
 _atom_site_symmetry_multiplicity
 _atom_site_fract_x
 _atom_site_fract_y
 _atom_site_fract_z
 _atom_site_occupancy
  P  P0  1  0.99795592  0.00204408  0.00000000  1
  Pb  Pb0  1  0.35750579  0.64249421  0.00000000  1
  Pb  Pb1  1  0.63327323  0.36672677  0.00000000  1
  Pb  Pb2  1  0.45266245  0.54733755  0.50000000  1
  Pb  Pb3  1  0.78053362  0.21946638  0.50000000  1
  Pb  Pb4  1  0.11140232  0.88859768  0.50000000  1
