# generated using pymatgen
data_4140_In6Rh2
_symmetry_space_group_name_H-M   'Pm -3 n'
_cell_length_a   5.47452829
_cell_length_b   5.47452829
_cell_length_c   5.47452829
_cell_angle_alpha   90.00000000
_cell_angle_beta   90.00000000
_cell_angle_gamma   90.00000000
_chemical_formula_structural   In6Rh2
_chemical_formula_sum   'In6 Rh2'
_cell_volume   164.07413112
loop_
 _symmetry_equiv_pos_site_id
 _symmetry_equiv_pos_as_xyz
  1  'x, y, z'
loop_
 _atom_type_symbol
  In
  Rh
loop_
 _atom_site_type_symbol
 _atom_site_label
 _atom_site_symmetry_multiplicity
 _atom_site_fract_x
 _atom_site_fract_y
 _atom_site_fract_z
 _atom_site_occupancy
  In  In0  1  0.75000000  0.50000000  0.00000000  1
  In  In1  1  0.25000000  0.50000000  0.00000000  1
  In  In2  1  0.00000000  0.75000000  0.50000000  1
  In  In3  1  0.00000000  0.25000000  0.50000000  1
  In  In4  1  0.50000000  0.00000000  0.25000000  1
  In  In5  1  0.50000000  0.00000000  0.75000000  1
  Rh  Rh0  1  0.00000000  0.00000000  0.00000000  1
  Rh  Rh1  1  0.50000000  0.50000000  0.50000000  1
