# generated using pymatgen
data_4141_Ga8Pb
_symmetry_space_group_name_H-M   'I4/mmm'
_cell_length_a   6.88389626
_cell_length_b   6.88389626
_cell_length_c   6.88389626
_cell_angle_alpha   95.56601855
_cell_angle_beta   95.56601855
_cell_angle_gamma   143.70836928
_chemical_formula_structural   Ga8Pb
_chemical_formula_sum   'Ga8 Pb1'
_cell_volume   183.48205679
loop_
 _symmetry_equiv_pos_site_id
 _symmetry_equiv_pos_as_xyz
  1  'x, y, z'
loop_
 _atom_type_symbol
  Ga
  Pb
loop_
 _atom_site_type_symbol
 _atom_site_label
 _atom_site_symmetry_multiplicity
 _atom_site_fract_x
 _atom_site_fract_y
 _atom_site_fract_z
 _atom_site_occupancy
  Ga  Ga0  1  0.32141782  0.67858218  0.00000000  1
  Ga  Ga1  1  0.67858218  0.32141782  0.00000000  1
  Ga  Ga2  1  1.00000000  0.34345351  0.34345351  1
  Ga  Ga3  1  0.67858218  0.67858218  0.35716436  1
  Ga  Ga4  1  0.34345351  1.00000000  0.34345351  1
  Ga  Ga5  1  0.32141782  0.32141782  0.64283564  1
  Ga  Ga6  1  0.00000000  0.65654649  0.65654649  1
  Ga  Ga7  1  0.65654649  1.00000000  0.65654649  1
  Pb  Pb0  1  0.00000000  0.00000000  0.00000000  1
