# generated using pymatgen
data_4142_Au3As
_symmetry_space_group_name_H-M   'Immm'
_cell_length_a   5.51249842
_cell_length_b   5.51249842
_cell_length_c   5.51249842
_cell_angle_alpha   144.96103676
_cell_angle_beta   129.12743778
_cell_angle_gamma   63.26855886
_chemical_formula_structural   Au3As
_chemical_formula_sum   'As1 Au3'
_cell_volume   73.76086957
loop_
 _symmetry_equiv_pos_site_id
 _symmetry_equiv_pos_as_xyz
  1  'x, y, z'
loop_
 _atom_type_symbol
  As
  Au
loop_
 _atom_site_type_symbol
 _atom_site_label
 _atom_site_symmetry_multiplicity
 _atom_site_fract_x
 _atom_site_fract_y
 _atom_site_fract_z
 _atom_site_occupancy
  As  As0  1  0.50000000  0.00000000  0.50000000  1
  Au  Au0  1  0.74140235  0.74140235  1.00000000  1
  Au  Au1  1  0.25859765  0.25859765  1.00000000  1
  Au  Au2  1  0.00000000  0.50000000  0.50000000  1
