# generated using pymatgen
data_4145_Nb2As2
_symmetry_space_group_name_H-M   'Cmcm'
_cell_length_a   4.49390947
_cell_length_b   3.35381970
_cell_length_c   5.06126201
_cell_angle_alpha   70.62747210
_cell_angle_beta   90.00000000
_cell_angle_gamma   90.00000000
_chemical_formula_structural   Nb2As2
_chemical_formula_sum   'As2 Nb2'
_cell_volume   71.96318079
loop_
 _symmetry_equiv_pos_site_id
 _symmetry_equiv_pos_as_xyz
  1  'x, y, z'
loop_
 _atom_type_symbol
  As
  Nb
loop_
 _atom_site_type_symbol
 _atom_site_label
 _atom_site_symmetry_multiplicity
 _atom_site_fract_x
 _atom_site_fract_y
 _atom_site_fract_z
 _atom_site_occupancy
  As  As0  1  0.75000000  0.38199634  0.23724582  1
  As  As1  1  0.25000000  0.61800366  0.76275418  1
  Nb  Nb0  1  0.75000000  0.09408391  0.81170847  1
  Nb  Nb1  1  0.25000000  0.90591609  0.18829153  1
