# generated using pymatgen
data_4148_GeI
_symmetry_space_group_name_H-M   'Pm -3 m'
_cell_length_a   3.79296104
_cell_length_b   5.36405693
_cell_length_c   3.80686066
_cell_angle_alpha   90.00000000
_cell_angle_beta   90.00000000
_cell_angle_gamma   45.00000000
_chemical_formula_structural   GeI
_chemical_formula_sum   'Ge1 I1'
_cell_volume   54.76760418
loop_
 _symmetry_equiv_pos_site_id
 _symmetry_equiv_pos_as_xyz
  1  'x, y, z'
loop_
 _atom_type_symbol
  Ge
  I
loop_
 _atom_site_type_symbol
 _atom_site_label
 _atom_site_symmetry_multiplicity
 _atom_site_fract_x
 _atom_site_fract_y
 _atom_site_fract_z
 _atom_site_occupancy
  Ge  Ge0  1  0.00000000  0.00000000  0.00000000  1
  I  I0  1  0.00000001  0.49999997  0.49999961  1
