# generated using pymatgen
data_4158_Sn4W2
_symmetry_space_group_name_H-M   'Cmcm'
_cell_length_a   7.60388281
_cell_length_b   7.60388281
_cell_length_c   5.08347251
_cell_angle_alpha   90.00000000
_cell_angle_beta   90.00000000
_cell_angle_gamma   153.98804567
_chemical_formula_structural   Sn4W2
_chemical_formula_sum   'Sn4 W2'
_cell_volume   128.90180646
loop_
 _symmetry_equiv_pos_site_id
 _symmetry_equiv_pos_as_xyz
  1  'x, y, z'
loop_
 _atom_type_symbol
  Sn
  W
loop_
 _atom_site_type_symbol
 _atom_site_label
 _atom_site_symmetry_multiplicity
 _atom_site_fract_x
 _atom_site_fract_y
 _atom_site_fract_z
 _atom_site_occupancy
  Sn  Sn0  1  0.02526542  0.97473458  0.00000000  1
  Sn  Sn1  1  0.33030710  0.66969290  0.00000000  1
  Sn  Sn2  1  0.44747068  0.55252932  0.50000000  1
  Sn  Sn3  1  0.75251236  0.24748764  0.50000000  1
  W  W0  1  0.67516224  0.32483776  0.00000000  1
  W  W1  1  0.10261554  0.89738446  0.50000000  1
