# generated using pymatgen
data_4164_Sn2W4
_symmetry_space_group_name_H-M   'Cmcm'
_cell_length_a   7.56660392
_cell_length_b   7.56660392
_cell_length_c   4.70943058
_cell_angle_alpha   90.00000000
_cell_angle_beta   90.00000000
_cell_angle_gamma   156.92898119
_chemical_formula_structural   Sn2W4
_chemical_formula_sum   'Sn2 W4'
_cell_volume   105.66092750
loop_
 _symmetry_equiv_pos_site_id
 _symmetry_equiv_pos_as_xyz
  1  'x, y, z'
loop_
 _atom_type_symbol
  Sn
  W
loop_
 _atom_site_type_symbol
 _atom_site_label
 _atom_site_symmetry_multiplicity
 _atom_site_fract_x
 _atom_site_fract_y
 _atom_site_fract_z
 _atom_site_occupancy
  Sn  Sn0  1  0.66738843  0.33261157  0.00000000  1
  Sn  Sn1  1  0.44372268  0.55627732  0.50000000  1
  W  W0  1  0.00095880  0.99904120  0.00000000  1
  W  W1  1  0.33897278  0.66102722  0.00000000  1
  W  W2  1  0.77213833  0.22786167  0.50000000  1
  W  W3  1  0.11015231  0.88984769  0.50000000  1
