# generated using pymatgen
data_4166_Pb2Ta4
_symmetry_space_group_name_H-M   'I4/mcm'
_cell_length_a   5.48154674
_cell_length_b   5.48154674
_cell_length_c   5.48154674
_cell_angle_alpha   106.60823487
_cell_angle_beta   106.60823487
_cell_angle_gamma   115.36275299
_chemical_formula_structural   Pb2Ta4
_chemical_formula_sum   'Pb2 Ta4'
_cell_volume   125.77498544
loop_
 _symmetry_equiv_pos_site_id
 _symmetry_equiv_pos_as_xyz
  1  'x, y, z'
loop_
 _atom_type_symbol
  Pb
  Ta
loop_
 _atom_site_type_symbol
 _atom_site_label
 _atom_site_symmetry_multiplicity
 _atom_site_fract_x
 _atom_site_fract_y
 _atom_site_fract_z
 _atom_site_occupancy
  Pb  Pb0  1  0.75000000  0.75000000  0.00000000  1
  Pb  Pb1  1  0.25000000  0.25000000  0.00000000  1
  Ta  Ta0  1  0.35914747  0.14085253  0.50000000  1
  Ta  Ta1  1  0.64085253  0.85914747  0.50000000  1
  Ta  Ta2  1  0.14085253  0.64085253  0.78170506  1
  Ta  Ta3  1  0.85914747  0.35914747  0.21829494  1
