# generated using pymatgen
data_4168_Fe3Mo4
_symmetry_space_group_name_H-M   'I4/mmm'
_cell_length_a   3.11476421
_cell_length_b   10.22600985
_cell_length_c   3.11476421
_cell_angle_alpha   81.23998371
_cell_angle_beta   90.00000000
_cell_angle_gamma   98.76001629
_chemical_formula_structural   Fe3Mo4
_chemical_formula_sum   'Fe3 Mo4'
_cell_volume   96.88183511
loop_
 _symmetry_equiv_pos_site_id
 _symmetry_equiv_pos_as_xyz
  1  'x, y, z'
loop_
 _atom_type_symbol
  Fe
  Mo
loop_
 _atom_site_type_symbol
 _atom_site_label
 _atom_site_symmetry_multiplicity
 _atom_site_fract_x
 _atom_site_fract_y
 _atom_site_fract_z
 _atom_site_occupancy
  Fe  Fe0  1  0.00000000  0.00000000  0.00000000  1
  Fe  Fe1  1  0.28673573  0.57347146  0.71326427  1
  Fe  Fe2  1  0.71326427  0.42652854  0.28673573  1
  Mo  Mo0  1  0.15448014  0.30896029  0.84551986  1
  Mo  Mo1  1  0.84551986  0.69103971  0.15448014  1
  Mo  Mo2  1  0.42722809  0.85445617  0.57277191  1
  Mo  Mo3  1  0.57277191  0.14554383  0.42722809  1
