# generated using pymatgen
data_4177_FePt3
_symmetry_space_group_name_H-M   'Pmmm'
_cell_length_a   2.75708005
_cell_length_b   3.81103169
_cell_length_c   5.56860208
_cell_angle_alpha   90.00000000
_cell_angle_beta   90.00000000
_cell_angle_gamma   90.00000000
_chemical_formula_structural   FePt3
_chemical_formula_sum   'Fe1 Pt3'
_cell_volume   58.51108088
loop_
 _symmetry_equiv_pos_site_id
 _symmetry_equiv_pos_as_xyz
  1  'x, y, z'
loop_
 _atom_type_symbol
  Fe
  Pt
loop_
 _atom_site_type_symbol
 _atom_site_label
 _atom_site_symmetry_multiplicity
 _atom_site_fract_x
 _atom_site_fract_y
 _atom_site_fract_z
 _atom_site_occupancy
  Fe  Fe0  1  0.00000000  0.00000000  0.00000000  1
  Pt  Pt0  1  0.00000000  0.00000000  0.50000000  1
  Pt  Pt1  1  0.50000000  0.50000000  0.23601065  1
  Pt  Pt2  1  0.50000000  0.50000000  0.76398935  1
