# generated using pymatgen
data_4179_Rh4W2
_symmetry_space_group_name_H-M   'I4/mcm'
_cell_length_a   5.01658655
_cell_length_b   5.01658655
_cell_length_c   5.01658655
_cell_angle_alpha   105.01356172
_cell_angle_beta   105.01356172
_cell_angle_gamma   118.80987252
_chemical_formula_structural   Rh4W2
_chemical_formula_sum   'Rh4 W2'
_cell_volume   95.22150423
loop_
 _symmetry_equiv_pos_site_id
 _symmetry_equiv_pos_as_xyz
  1  'x, y, z'
loop_
 _atom_type_symbol
  Rh
  W
loop_
 _atom_site_type_symbol
 _atom_site_label
 _atom_site_symmetry_multiplicity
 _atom_site_fract_x
 _atom_site_fract_y
 _atom_site_fract_z
 _atom_site_occupancy
  Rh  Rh0  1  0.15019932  0.34980068  0.50000000  1
  Rh  Rh1  1  0.34980068  0.84980068  0.19960137  1
  Rh  Rh2  1  0.65019932  0.15019932  0.80039863  1
  Rh  Rh3  1  0.84980068  0.65019932  0.50000000  1
  W  W0  1  0.25000000  0.25000000  0.00000000  1
  W  W1  1  0.75000000  0.75000000  0.00000000  1
