# generated using pymatgen
data_4182_TaV
_symmetry_space_group_name_H-M   'P-6m2'
_cell_length_a   2.80450900
_cell_length_b   2.80438971
_cell_length_c   4.81643600
_cell_angle_alpha   90.00000000
_cell_angle_beta   90.00000000
_cell_angle_gamma   120.00141897
_chemical_formula_structural   TaV
_chemical_formula_sum   'Ta1 V1'
_cell_volume   32.80540607
loop_
 _symmetry_equiv_pos_site_id
 _symmetry_equiv_pos_as_xyz
  1  'x, y, z'
loop_
 _atom_type_symbol
  Ta
  V
loop_
 _atom_site_type_symbol
 _atom_site_label
 _atom_site_symmetry_multiplicity
 _atom_site_fract_x
 _atom_site_fract_y
 _atom_site_fract_z
 _atom_site_occupancy
  Ta  Ta0  1  0.66667346  0.33334317  0.75000061  1
  V  V0  1  0.33332875  0.66665751  0.25000020  1
