# generated using pymatgen
data_4183_Au3Ta
_symmetry_space_group_name_H-M   'I4/mmm'
_cell_length_a   4.97017463
_cell_length_b   4.97017463
_cell_length_c   4.97017463
_cell_angle_alpha   130.68230988
_cell_angle_beta   130.68230988
_cell_angle_gamma   72.31831044
_chemical_formula_structural   Au3Ta
_chemical_formula_sum   'Au3 Ta1'
_cell_volume   69.01954664
loop_
 _symmetry_equiv_pos_site_id
 _symmetry_equiv_pos_as_xyz
  1  'x, y, z'
loop_
 _atom_type_symbol
  Au
  Ta
loop_
 _atom_site_type_symbol
 _atom_site_label
 _atom_site_symmetry_multiplicity
 _atom_site_fract_x
 _atom_site_fract_y
 _atom_site_fract_z
 _atom_site_occupancy
  Au  Au0  1  0.50000000  0.50000000  0.00000000  1
  Au  Au1  1  0.75000000  0.25000000  0.50000000  1
  Au  Au2  1  0.25000000  0.75000000  0.50000000  1
  Ta  Ta0  1  0.00000000  0.00000000  0.00000000  1
