# generated using pymatgen
data_4190_KSb3
_symmetry_space_group_name_H-M   'Pmm2'
_cell_length_a   4.05385577
_cell_length_b   5.67134880
_cell_length_c   6.13549760
_cell_angle_alpha   90.00000000
_cell_angle_beta   90.00000000
_cell_angle_gamma   90.00000000
_chemical_formula_structural   KSb3
_chemical_formula_sum   'K1 Sb3'
_cell_volume   141.06018263
loop_
 _symmetry_equiv_pos_site_id
 _symmetry_equiv_pos_as_xyz
  1  'x, y, z'
loop_
 _atom_type_symbol
  K
  Sb
loop_
 _atom_site_type_symbol
 _atom_site_label
 _atom_site_symmetry_multiplicity
 _atom_site_fract_x
 _atom_site_fract_y
 _atom_site_fract_z
 _atom_site_occupancy
  K  K0  1  0.00000000  0.00000000  0.01094182  1
  Sb  Sb0  1  0.50000000  0.00000000  0.50963045  1
  Sb  Sb1  1  0.50000000  0.50000000  0.73789439  1
  Sb  Sb2  1  0.00000000  0.50000000  0.40820001  1
