# generated using pymatgen
data_4193_K6Pd2
_symmetry_space_group_name_H-M   'Cmcm'
_cell_length_a   8.26195512
_cell_length_b   8.26195512
_cell_length_c   5.53366019
_cell_angle_alpha   90.00000000
_cell_angle_beta   90.00000000
_cell_angle_gamma   59.05969555
_chemical_formula_structural   K6Pd2
_chemical_formula_sum   'K6 Pd2'
_cell_volume   323.97783869
loop_
 _symmetry_equiv_pos_site_id
 _symmetry_equiv_pos_as_xyz
  1  'x, y, z'
loop_
 _atom_type_symbol
  K
  Pd
loop_
 _atom_site_type_symbol
 _atom_site_label
 _atom_site_symmetry_multiplicity
 _atom_site_fract_x
 _atom_site_fract_y
 _atom_site_fract_z
 _atom_site_occupancy
  K  K0  1  0.19001591  0.63135096  0.75000000  1
  K  K1  1  0.19132960  0.19132960  0.75000000  1
  K  K2  1  0.36864904  0.80998409  0.25000000  1
  K  K3  1  0.63135096  0.19001591  0.75000000  1
  K  K4  1  0.80867040  0.80867040  0.25000000  1
  K  K5  1  0.80998409  0.36864904  0.25000000  1
  Pd  Pd0  1  0.34023064  0.34023064  0.25000000  1
  Pd  Pd1  1  0.65976936  0.65976936  0.75000000  1
