# generated using pymatgen
data_4194_PbTa3
_symmetry_space_group_name_H-M   'I4/mmm'
_cell_length_a   5.21505799
_cell_length_b   5.21505799
_cell_length_c   5.21505799
_cell_angle_alpha   131.44455287
_cell_angle_beta   131.44455287
_cell_angle_gamma   71.10772275
_chemical_formula_structural   PbTa3
_chemical_formula_sum   'Pb1 Ta3'
_cell_volume   78.02856413
loop_
 _symmetry_equiv_pos_site_id
 _symmetry_equiv_pos_as_xyz
  1  'x, y, z'
loop_
 _atom_type_symbol
  Pb
  Ta
loop_
 _atom_site_type_symbol
 _atom_site_label
 _atom_site_symmetry_multiplicity
 _atom_site_fract_x
 _atom_site_fract_y
 _atom_site_fract_z
 _atom_site_occupancy
  Pb  Pb0  1  0.00000000  0.00000000  0.00000000  1
  Ta  Ta0  1  0.25000000  0.75000000  0.50000000  1
  Ta  Ta1  1  0.50000000  0.50000000  0.00000000  1
  Ta  Ta2  1  0.75000000  0.25000000  0.50000000  1
