# generated using pymatgen
data_4198_Al5Fe
_symmetry_space_group_name_H-M   'Cmmm'
_cell_length_a   6.20630786
_cell_length_b   6.20630786
_cell_length_c   3.87485640
_cell_angle_alpha   90.00000000
_cell_angle_beta   90.00000000
_cell_angle_gamma   144.08055658
_chemical_formula_structural   Al5Fe
_chemical_formula_sum   'Al5 Fe1'
_cell_volume   87.55868938
loop_
 _symmetry_equiv_pos_site_id
 _symmetry_equiv_pos_as_xyz
  1  'x, y, z'
loop_
 _atom_type_symbol
  Al
  Fe
loop_
 _atom_site_type_symbol
 _atom_site_label
 _atom_site_symmetry_multiplicity
 _atom_site_fract_x
 _atom_site_fract_y
 _atom_site_fract_z
 _atom_site_occupancy
  Al  Al0  1  0.81293380  0.18706620  0.50000000  1
  Al  Al1  1  0.62718683  0.37281317  0.00000000  1
  Al  Al2  1  0.47222283  0.52777717  0.50000000  1
  Al  Al3  1  0.31726005  0.68273995  0.00000000  1
  Al  Al4  1  0.13151444  0.86848556  0.50000000  1
  Fe  Fe0  1  0.97221537  0.02778463  0.00000000  1
