# generated using pymatgen
data_4199_Sm4Sb8
_symmetry_space_group_name_H-M   'Cmce'
_cell_length_a   4.37476444
_cell_length_b   4.37476444
_cell_length_c   18.14420700
_cell_angle_alpha   90.00000000
_cell_angle_beta   90.00000000
_cell_angle_gamma   88.69335201
_chemical_formula_structural   Sm4Sb8
_chemical_formula_sum   'Sb8 Sm4'
_cell_volume   347.16376892
loop_
 _symmetry_equiv_pos_site_id
 _symmetry_equiv_pos_as_xyz
  1  'x, y, z'
loop_
 _atom_type_symbol
  Sb
  Sm
loop_
 _atom_site_type_symbol
 _atom_site_label
 _atom_site_symmetry_multiplicity
 _atom_site_fract_x
 _atom_site_fract_y
 _atom_site_fract_z
 _atom_site_occupancy
  Sb  Sb0  1  0.36261611  0.63738498  0.06411909  1
  Sb  Sb1  1  0.37620729  0.12379325  0.24999991  1
  Sb  Sb2  1  0.87620624  0.62379220  0.24999991  1
  Sb  Sb3  1  0.86261579  0.13738530  0.43588128  1
  Sb  Sb4  1  0.13738530  0.86261579  0.56411891  1
  Sb  Sb5  1  0.12379325  0.37620729  0.74999973  1
  Sb  Sb6  1  0.62379220  0.87620624  0.74999973  1
  Sb  Sb7  1  0.63738498  0.36261611  0.93588110  1
  Sm  Sm0  1  0.85891070  0.14109040  0.11037738  1
  Sm  Sm1  1  0.35891102  0.64109007  0.38962299  1
  Sm  Sm2  1  0.64109007  0.35891102  0.61037720  1
  Sm  Sm3  1  0.14109040  0.85891070  0.88962281  1
