# generated using pymatgen
data_41_TaV5
_symmetry_space_group_name_H-M   'Cmmm'
_cell_length_a   3.05126942
_cell_length_b   6.65913024
_cell_length_c   4.34690943
_cell_angle_alpha   90.00000000
_cell_angle_beta   90.00000000
_cell_angle_gamma   76.75566196
_chemical_formula_structural   TaV5
_chemical_formula_sum   'Ta1 V5'
_cell_volume   85.97473545
loop_
 _symmetry_equiv_pos_site_id
 _symmetry_equiv_pos_as_xyz
  1  'x, y, z'
loop_
 _atom_type_symbol
  Ta
  V
loop_
 _atom_site_type_symbol
 _atom_site_label
 _atom_site_symmetry_multiplicity
 _atom_site_fract_x
 _atom_site_fract_y
 _atom_site_fract_z
 _atom_site_occupancy
  Ta  Ta0  1  0.02788007  0.94423985  0.00000000  1
  V  V0  1  0.19696309  0.60607381  0.50000000  1
  V  V1  1  0.35329474  0.29341052  0.00000000  1
  V  V2  1  0.52737663  0.94524675  0.50000000  1
  V  V3  1  0.70278918  0.59442164  0.00000000  1
  V  V4  1  0.85836295  0.28327410  0.50000000  1
