# generated using pymatgen
data_4201_NpSm
_symmetry_space_group_name_H-M   'Pm -3 m'
_cell_length_a   3.86734100
_cell_length_b   3.86734100
_cell_length_c   3.86734100
_cell_angle_alpha   90.00000000
_cell_angle_beta   90.00000000
_cell_angle_gamma   90.00000000
_chemical_formula_structural   NpSm
_chemical_formula_sum   'Np1 Sm1'
_cell_volume   57.84121434
loop_
 _symmetry_equiv_pos_site_id
 _symmetry_equiv_pos_as_xyz
  1  'x, y, z'
loop_
 _atom_type_symbol
  Np
  Sm
loop_
 _atom_site_type_symbol
 _atom_site_label
 _atom_site_symmetry_multiplicity
 _atom_site_fract_x
 _atom_site_fract_y
 _atom_site_fract_z
 _atom_site_occupancy
  Np  Np0  1  0.00000000  0.00000000  0.00000000  1
  Sm  Sm0  1  0.49999985  0.49999985  0.49999985  1
