# generated using pymatgen
data_4206_PbSb3
_symmetry_space_group_name_H-M   'I4/mmm'
_cell_length_a   5.85654953
_cell_length_b   5.85654953
_cell_length_c   5.85654953
_cell_angle_alpha   129.92926211
_cell_angle_beta   129.92926211
_cell_angle_gamma   73.51987613
_chemical_formula_structural   PbSb3
_chemical_formula_sum   'Pb1 Sb3'
_cell_volume   115.27755138
loop_
 _symmetry_equiv_pos_site_id
 _symmetry_equiv_pos_as_xyz
  1  'x, y, z'
loop_
 _atom_type_symbol
  Pb
  Sb
loop_
 _atom_site_type_symbol
 _atom_site_label
 _atom_site_symmetry_multiplicity
 _atom_site_fract_x
 _atom_site_fract_y
 _atom_site_fract_z
 _atom_site_occupancy
  Pb  Pb0  1  0.00000000  0.00000000  0.00000000  1
  Sb  Sb0  1  0.25000000  0.75000000  0.50000000  1
  Sb  Sb1  1  0.50000000  0.50000000  0.00000000  1
  Sb  Sb2  1  0.75000000  0.25000000  0.50000000  1
