# generated using pymatgen
data_4207_K4Pd2
_symmetry_space_group_name_H-M   'Pnnm'
_cell_length_a   7.29466595
_cell_length_b   7.30581973
_cell_length_c   5.13850935
_cell_angle_alpha   90.00000000
_cell_angle_beta   90.00000000
_cell_angle_gamma   90.00000000
_chemical_formula_structural   K4Pd2
_chemical_formula_sum   'K4 Pd2'
_cell_volume   273.84922215
loop_
 _symmetry_equiv_pos_site_id
 _symmetry_equiv_pos_as_xyz
  1  'x, y, z'
loop_
 _atom_type_symbol
  K
  Pd
loop_
 _atom_site_type_symbol
 _atom_site_label
 _atom_site_symmetry_multiplicity
 _atom_site_fract_x
 _atom_site_fract_y
 _atom_site_fract_z
 _atom_site_occupancy
  K  K0  1  0.28153755  0.33427055  0.00000000  1
  K  K1  1  0.21846245  0.83427055  0.50000000  1
  K  K2  1  0.78153755  0.16572945  0.50000000  1
  K  K3  1  0.71846245  0.66572945  0.00000000  1
  Pd  Pd0  1  0.00000000  0.00000000  0.00000000  1
  Pd  Pd1  1  0.50000000  0.50000000  0.50000000  1
