# generated using pymatgen
data_4209_PdGe2
_symmetry_space_group_name_H-M   'Immm'
_cell_length_a   4.88953094
_cell_length_b   4.88953094
_cell_length_c   4.88953094
_cell_angle_alpha   142.48251895
_cell_angle_beta   133.14299567
_cell_angle_gamma   61.51106224
_chemical_formula_structural   PdGe2
_chemical_formula_sum   'Ge2 Pd1'
_cell_volume   51.37841661
loop_
 _symmetry_equiv_pos_site_id
 _symmetry_equiv_pos_as_xyz
  1  'x, y, z'
loop_
 _atom_type_symbol
  Ge
  Pd
loop_
 _atom_site_type_symbol
 _atom_site_label
 _atom_site_symmetry_multiplicity
 _atom_site_fract_x
 _atom_site_fract_y
 _atom_site_fract_z
 _atom_site_occupancy
  Ge  Ge0  1  0.66200082  0.66200082  1.00000000  1
  Ge  Ge1  1  0.33799918  0.33799918  1.00000000  1
  Pd  Pd0  1  0.00000000  0.00000000  0.00000000  1
