# generated using pymatgen
data_4210_Mo2W4
_symmetry_space_group_name_H-M   'Cmcm'
_cell_length_a   3.18290113
_cell_length_b   6.92091644
_cell_length_c   4.49237726
_cell_angle_alpha   90.00000000
_cell_angle_beta   90.00000000
_cell_angle_gamma   76.70599244
_chemical_formula_structural   Mo2W4
_chemical_formula_sum   'Mo2 W4'
_cell_volume   96.30889080
loop_
 _symmetry_equiv_pos_site_id
 _symmetry_equiv_pos_as_xyz
  1  'x, y, z'
loop_
 _atom_type_symbol
  Mo
  W
loop_
 _atom_site_type_symbol
 _atom_site_label
 _atom_site_symmetry_multiplicity
 _atom_site_fract_x
 _atom_site_fract_y
 _atom_site_fract_z
 _atom_site_occupancy
  Mo  Mo0  1  0.36112115  0.27775769  0.00000000  1
  Mo  Mo1  1  0.52776773  0.94446453  0.50000000  1
  W  W0  1  0.02763866  0.94472267  0.00000000  1
  W  W1  1  0.19447241  0.61105518  0.50000000  1
  W  W2  1  0.69441648  0.61116704  0.00000000  1
  W  W3  1  0.86125023  0.27749955  0.50000000  1
