# generated using pymatgen
data_4222_Ag4Na2
_symmetry_space_group_name_H-M   'Pnnm'
_cell_length_a   4.69644481
_cell_length_b   2.93029161
_cell_length_c   8.56554700
_cell_angle_alpha   90.00000000
_cell_angle_beta   90.00000000
_cell_angle_gamma   90.00000000
_chemical_formula_structural   Ag4Na2
_chemical_formula_sum   'Ag4 Na2'
_cell_volume   117.87865372
loop_
 _symmetry_equiv_pos_site_id
 _symmetry_equiv_pos_as_xyz
  1  'x, y, z'
loop_
 _atom_type_symbol
  Ag
  Na
loop_
 _atom_site_type_symbol
 _atom_site_label
 _atom_site_symmetry_multiplicity
 _atom_site_fract_x
 _atom_site_fract_y
 _atom_site_fract_z
 _atom_site_occupancy
  Ag  Ag0  1  0.00000000  0.13795873  0.66953132  1
  Ag  Ag1  1  0.00000000  0.86204127  0.33046868  1
  Ag  Ag2  1  0.50000000  0.63795873  0.83046868  1
  Ag  Ag3  1  0.50000000  0.36204127  0.16953132  1
  Na  Na0  1  0.00000000  0.00000000  0.00000000  1
  Na  Na1  1  0.50000000  0.50000000  0.50000000  1
