# generated using pymatgen
data_4229_MoP3
_symmetry_space_group_name_H-M   'P4/mmm'
_cell_length_a   3.07409896
_cell_length_b   3.07409896
_cell_length_c   6.07445188
_cell_angle_alpha   90.00000000
_cell_angle_beta   90.00000000
_cell_angle_gamma   90.00000000
_chemical_formula_structural   MoP3
_chemical_formula_sum   'Mo1 P3'
_cell_volume   57.40408305
loop_
 _symmetry_equiv_pos_site_id
 _symmetry_equiv_pos_as_xyz
  1  'x, y, z'
loop_
 _atom_type_symbol
  Mo
  P
loop_
 _atom_site_type_symbol
 _atom_site_label
 _atom_site_symmetry_multiplicity
 _atom_site_fract_x
 _atom_site_fract_y
 _atom_site_fract_z
 _atom_site_occupancy
  Mo  Mo0  1  0.00000000  0.00000000  0.00000000  1
  P  P0  1  0.50000000  0.50000000  0.22256966  1
  P  P1  1  0.00000000  0.00000000  0.50000000  1
  P  P2  1  0.50000000  0.50000000  0.77743034  1
