# generated using pymatgen
data_4233_Ir2Ni2
_symmetry_space_group_name_H-M   'Imma'
_cell_length_a   4.18184670
_cell_length_b   4.90459976
_cell_length_c   2.88817834
_cell_angle_alpha   72.87629857
_cell_angle_beta   90.00000000
_cell_angle_gamma   115.23417109
_chemical_formula_structural   Ir2Ni2
_chemical_formula_sum   'Ir2 Ni2'
_cell_volume   50.66646715
loop_
 _symmetry_equiv_pos_site_id
 _symmetry_equiv_pos_as_xyz
  1  'x, y, z'
loop_
 _atom_type_symbol
  Ir
  Ni
loop_
 _atom_site_type_symbol
 _atom_site_label
 _atom_site_symmetry_multiplicity
 _atom_site_fract_x
 _atom_site_fract_y
 _atom_site_fract_z
 _atom_site_occupancy
  Ir  Ir0  1  0.98844613  0.97689226  0.01155387  1
  Ir  Ir1  1  0.26155387  0.52310774  0.23844613  1
  Ni  Ni0  1  0.51229693  0.02459385  0.48770307  1
  Ni  Ni1  1  0.73770307  0.47540615  0.76229693  1
