# generated using pymatgen
data_4235_Ag3Na5
_symmetry_space_group_name_H-M   'Cmmm'
_cell_length_a   6.47451616
_cell_length_b   6.47451616
_cell_length_c   4.72604609
_cell_angle_alpha   90.00000000
_cell_angle_beta   90.00000000
_cell_angle_gamma   95.09461413
_chemical_formula_structural   Ag3Na5
_chemical_formula_sum   'Ag3 Na5'
_cell_volume   197.33016419
loop_
 _symmetry_equiv_pos_site_id
 _symmetry_equiv_pos_as_xyz
  1  'x, y, z'
loop_
 _atom_type_symbol
  Ag
  Na
loop_
 _atom_site_type_symbol
 _atom_site_label
 _atom_site_symmetry_multiplicity
 _atom_site_fract_x
 _atom_site_fract_y
 _atom_site_fract_z
 _atom_site_occupancy
  Ag  Ag0  1  0.50000000  0.50000000  0.00000000  1
  Ag  Ag1  1  0.74565941  0.25434059  0.50000000  1
  Ag  Ag2  1  0.25434059  0.74565941  0.50000000  1
  Na  Na0  1  0.00000000  0.00000000  0.00000000  1
  Na  Na1  1  0.00000000  0.50000000  0.00000000  1
  Na  Na2  1  0.50000000  0.00000000  0.00000000  1
  Na  Na3  1  0.26805114  0.26805114  0.50000000  1
  Na  Na4  1  0.73194886  0.73194886  0.50000000  1
