# generated using pymatgen
data_4239_Sr3Ta
_symmetry_space_group_name_H-M   'I4/mmm'
_cell_length_a   6.53964293
_cell_length_b   6.53964293
_cell_length_c   6.53964293
_cell_angle_alpha   131.77341256
_cell_angle_beta   131.77341256
_cell_angle_gamma   70.58713338
_chemical_formula_structural   Sr3Ta
_chemical_formula_sum   'Sr3 Ta1'
_cell_volume   152.40315027
loop_
 _symmetry_equiv_pos_site_id
 _symmetry_equiv_pos_as_xyz
  1  'x, y, z'
loop_
 _atom_type_symbol
  Sr
  Ta
loop_
 _atom_site_type_symbol
 _atom_site_label
 _atom_site_symmetry_multiplicity
 _atom_site_fract_x
 _atom_site_fract_y
 _atom_site_fract_z
 _atom_site_occupancy
  Sr  Sr0  1  0.50000000  0.50000000  0.00000000  1
  Sr  Sr1  1  0.75000000  0.25000000  0.50000000  1
  Sr  Sr2  1  0.25000000  0.75000000  0.50000000  1
  Ta  Ta0  1  0.00000000  0.00000000  0.00000000  1
