# generated using pymatgen
data_4241_Au8Rh4
_symmetry_space_group_name_H-M   'Pnma'
_cell_length_a   5.76334659
_cell_length_b   4.03964454
_cell_length_c   8.61986088
_cell_angle_alpha   90.00000000
_cell_angle_beta   90.00000000
_cell_angle_gamma   90.00000000
_chemical_formula_structural   Au8Rh4
_chemical_formula_sum   'Au8 Rh4'
_cell_volume   200.68649408
loop_
 _symmetry_equiv_pos_site_id
 _symmetry_equiv_pos_as_xyz
  1  'x, y, z'
loop_
 _atom_type_symbol
  Au
  Rh
loop_
 _atom_site_type_symbol
 _atom_site_label
 _atom_site_symmetry_multiplicity
 _atom_site_fract_x
 _atom_site_fract_y
 _atom_site_fract_z
 _atom_site_occupancy
  Au  Au0  1  0.12699718  0.25000000  0.25011356  1
  Au  Au1  1  0.12512577  0.25000000  0.58524661  1
  Au  Au2  1  0.37487423  0.75000000  0.08524661  1
  Au  Au3  1  0.37300282  0.75000000  0.75011356  1
  Au  Au4  1  0.62699718  0.25000000  0.24988644  1
  Au  Au5  1  0.62512577  0.25000000  0.91475339  1
  Au  Au6  1  0.87487423  0.75000000  0.41475339  1
  Au  Au7  1  0.87300282  0.75000000  0.74988644  1
  Rh  Rh0  1  0.11334027  0.25000000  0.92341722  1
  Rh  Rh1  1  0.38665973  0.75000000  0.42341722  1
  Rh  Rh2  1  0.61334027  0.25000000  0.57658278  1
  Rh  Rh3  1  0.88665973  0.75000000  0.07658278  1
