# generated using pymatgen
data_4243_Ir3Ni
_symmetry_space_group_name_H-M   'Imm2'
_cell_length_a   5.11868772
_cell_length_b   5.11868772
_cell_length_c   5.11868772
_cell_angle_alpha   149.11314293
_cell_angle_beta   125.59741867
_cell_angle_gamma   63.87895305
_chemical_formula_structural   Ir3Ni
_chemical_formula_sum   'Ir3 Ni1'
_cell_volume   55.41414410
loop_
 _symmetry_equiv_pos_site_id
 _symmetry_equiv_pos_as_xyz
  1  'x, y, z'
loop_
 _atom_type_symbol
  Ir
  Ni
loop_
 _atom_site_type_symbol
 _atom_site_label
 _atom_site_symmetry_multiplicity
 _atom_site_fract_x
 _atom_site_fract_y
 _atom_site_fract_z
 _atom_site_occupancy
  Ir  Ir0  1  0.24963224  0.24962356  0.00000868  1
  Ir  Ir1  1  0.75038513  0.75037644  0.00000868  1
  Ir  Ir2  1  0.83404852  0.50000000  0.33404852  1
  Ni  Ni0  1  0.33260411  1.00000000  0.33260411  1
