# generated using pymatgen
data_4254_CaBi
_symmetry_space_group_name_H-M   'P-6m2'
_cell_length_a   4.05306100
_cell_length_b   4.05301670
_cell_length_c   4.62527900
_cell_angle_alpha   89.99994408
_cell_angle_beta   90.00002652
_cell_angle_gamma   120.00071890
_chemical_formula_structural   CaBi
_chemical_formula_sum   'Bi1 Ca1'
_cell_volume   65.80016066
loop_
 _symmetry_equiv_pos_site_id
 _symmetry_equiv_pos_as_xyz
  1  'x, y, z'
loop_
 _atom_type_symbol
  Bi
  Ca
loop_
 _atom_site_type_symbol
 _atom_site_label
 _atom_site_symmetry_multiplicity
 _atom_site_fract_x
 _atom_site_fract_y
 _atom_site_fract_z
 _atom_site_occupancy
  Bi  Bi0  1  0.66666745  0.33333280  0.75000014  1
  Ca  Ca0  1  0.33333372  0.66666843  0.24999986  1
