# generated using pymatgen
data_4255_Au2Mn
_symmetry_space_group_name_H-M   'I4/mmm'
_cell_length_a   5.03111324
_cell_length_b   5.03111324
_cell_length_c   5.03111324
_cell_angle_alpha   140.64236356
_cell_angle_beta   140.64236356
_cell_angle_gamma   56.87924773
_chemical_formula_structural   Au2Mn
_chemical_formula_sum   'Au2 Mn1'
_cell_volume   50.79335279
loop_
 _symmetry_equiv_pos_site_id
 _symmetry_equiv_pos_as_xyz
  1  'x, y, z'
loop_
 _atom_type_symbol
  Au
  Mn
loop_
 _atom_site_type_symbol
 _atom_site_label
 _atom_site_symmetry_multiplicity
 _atom_site_fract_x
 _atom_site_fract_y
 _atom_site_fract_z
 _atom_site_occupancy
  Au  Au0  1  0.99346192  0.99346192  0.00000000  1
  Au  Au1  1  0.67320475  0.67320475  0.00000000  1
  Mn  Mn0  1  0.33333333  0.33333333  0.00000000  1
