# generated using pymatgen
data_4258_Al5Ni
_symmetry_space_group_name_H-M   'Amm2'
_cell_length_a   7.08448253
_cell_length_b   7.08448253
_cell_length_c   4.46371160
_cell_angle_alpha   90.00000000
_cell_angle_beta   90.00000000
_cell_angle_gamma   156.29047712
_chemical_formula_structural   Al5Ni
_chemical_formula_sum   'Al5 Ni1'
_cell_volume   90.08374313
loop_
 _symmetry_equiv_pos_site_id
 _symmetry_equiv_pos_as_xyz
  1  'x, y, z'
loop_
 _atom_type_symbol
  Al
  Ni
loop_
 _atom_site_type_symbol
 _atom_site_label
 _atom_site_symmetry_multiplicity
 _atom_site_fract_x
 _atom_site_fract_y
 _atom_site_fract_z
 _atom_site_occupancy
  Al  Al0  1  0.99900010  0.00099990  0.00000000  1
  Al  Al1  1  0.66510220  0.33489780  0.00000000  1
  Al  Al2  1  0.33926277  0.66073723  0.00000000  1
  Al  Al3  1  0.54344748  0.45655252  0.50000000  1
  Al  Al4  1  0.22972452  0.77027548  0.50000000  1
  Ni  Ni0  1  0.89012961  0.10987039  0.50000000  1
