# generated using pymatgen
data_4264_MoBr3
_symmetry_space_group_name_H-M   'Imm2'
_cell_length_a   6.82416887
_cell_length_b   6.82416887
_cell_length_c   6.82416887
_cell_angle_alpha   149.80814605
_cell_angle_beta   120.57865224
_cell_angle_gamma   68.09510882
_chemical_formula_structural   MoBr3
_chemical_formula_sum   'Br3 Mo1'
_cell_volume   135.95344141
loop_
 _symmetry_equiv_pos_site_id
 _symmetry_equiv_pos_as_xyz
  1  'x, y, z'
loop_
 _atom_type_symbol
  Br
  Mo
loop_
 _atom_site_type_symbol
 _atom_site_label
 _atom_site_symmetry_multiplicity
 _atom_site_fract_x
 _atom_site_fract_y
 _atom_site_fract_z
 _atom_site_occupancy
  Br  Br0  1  0.16369534  0.10020936  0.06348598  1
  Br  Br1  1  0.46327662  0.39979064  0.06348598  1
  Br  Br2  1  0.74787708  0.25000000  0.49787708  1
  Mo  Mo0  1  0.45848430  0.75000000  0.70848430  1
