# generated using pymatgen
data_4267_Ba3Ge
_symmetry_space_group_name_H-M   'P4/mmm'
_cell_length_a   4.17618336
_cell_length_b   4.15096918
_cell_length_c   10.97404410
_cell_angle_alpha   90.00000000
_cell_angle_beta   90.00000000
_cell_angle_gamma   90.00000000
_chemical_formula_structural   Ba3Ge
_chemical_formula_sum   'Ba3 Ge1'
_cell_volume   190.23734166
loop_
 _symmetry_equiv_pos_site_id
 _symmetry_equiv_pos_as_xyz
  1  'x, y, z'
loop_
 _atom_type_symbol
  Ba
  Ge
loop_
 _atom_site_type_symbol
 _atom_site_label
 _atom_site_symmetry_multiplicity
 _atom_site_fract_x
 _atom_site_fract_y
 _atom_site_fract_z
 _atom_site_occupancy
  Ba  Ba0  1  0.50000000  0.50000000  0.83303533  1
  Ba  Ba1  1  0.00000000  0.00000000  0.50000000  1
  Ba  Ba2  1  0.50000000  0.50000000  0.16696467  1
  Ge  Ge0  1  0.00000000  0.00000000  0.00000000  1
