# generated using pymatgen
data_4269_AuNi2
_symmetry_space_group_name_H-M   'Immm'
_cell_length_a   4.80484490
_cell_length_b   4.80484490
_cell_length_c   4.80484490
_cell_angle_alpha   146.31910203
_cell_angle_beta   139.20488376
_cell_angle_gamma   53.90046454
_chemical_formula_structural   AuNi2
_chemical_formula_sum   'Au1 Ni2'
_cell_volume   39.93683235
loop_
 _symmetry_equiv_pos_site_id
 _symmetry_equiv_pos_as_xyz
  1  'x, y, z'
loop_
 _atom_type_symbol
  Au
  Ni
loop_
 _atom_site_type_symbol
 _atom_site_label
 _atom_site_symmetry_multiplicity
 _atom_site_fract_x
 _atom_site_fract_y
 _atom_site_fract_z
 _atom_site_occupancy
  Au  Au0  1  0.00000000  0.00000000  0.00000000  1
  Ni  Ni0  1  0.31738992  0.31738992  0.00000000  1
  Ni  Ni1  1  0.68261008  0.68261008  0.00000000  1
