# generated using pymatgen
data_4270_Mo2V6
_symmetry_space_group_name_H-M   'Cmcm'
_cell_length_a   5.22565113
_cell_length_b   5.22565113
_cell_length_c   4.33877605
_cell_angle_alpha   90.00000000
_cell_angle_beta   90.00000000
_cell_angle_gamma   71.02540962
_chemical_formula_structural   Mo2V6
_chemical_formula_sum   'Mo2 V6'
_cell_volume   112.04291380
loop_
 _symmetry_equiv_pos_site_id
 _symmetry_equiv_pos_as_xyz
  1  'x, y, z'
loop_
 _atom_type_symbol
  Mo
  V
loop_
 _atom_site_type_symbol
 _atom_site_label
 _atom_site_symmetry_multiplicity
 _atom_site_fract_x
 _atom_site_fract_y
 _atom_site_fract_z
 _atom_site_occupancy
  Mo  Mo0  1  0.37136452  0.37136452  0.25000000  1
  Mo  Mo1  1  0.62863548  0.62863548  0.75000000  1
  V  V0  1  0.12530871  0.62605366  0.75000000  1
  V  V1  1  0.12004851  0.12004851  0.75000000  1
  V  V2  1  0.37394634  0.87469129  0.25000000  1
  V  V3  1  0.62605366  0.12530871  0.75000000  1
  V  V4  1  0.87995149  0.87995149  0.25000000  1
  V  V5  1  0.87469129  0.37394634  0.25000000  1
