# generated using pymatgen
data_4275_Ta2P4
_symmetry_space_group_name_H-M   'I4/mcm'
_cell_length_a   4.96697369
_cell_length_b   4.96697369
_cell_length_c   4.96697369
_cell_angle_alpha   110.86526377
_cell_angle_beta   110.86526377
_cell_angle_gamma   106.71772855
_chemical_formula_structural   Ta2P4
_chemical_formula_sum   'P4 Ta2'
_cell_volume   94.16843474
loop_
 _symmetry_equiv_pos_site_id
 _symmetry_equiv_pos_as_xyz
  1  'x, y, z'
loop_
 _atom_type_symbol
  P
  Ta
loop_
 _atom_site_type_symbol
 _atom_site_label
 _atom_site_symmetry_multiplicity
 _atom_site_fract_x
 _atom_site_fract_y
 _atom_site_fract_z
 _atom_site_occupancy
  P  P0  1  0.36235295  0.13764705  0.50000000  1
  P  P1  1  0.63764705  0.86235295  0.50000000  1
  P  P2  1  0.13764705  0.63764705  0.77529410  1
  P  P3  1  0.86235295  0.36235295  0.22470590  1
  Ta  Ta0  1  0.75000000  0.75000000  0.00000000  1
  Ta  Ta1  1  0.25000000  0.25000000  0.00000000  1
