# generated using pymatgen
data_4280_Al10Ta20
_symmetry_space_group_name_H-M   'P4_2/mnm'
_cell_length_a   9.91963900
_cell_length_b   9.91963900
_cell_length_c   5.40969600
_cell_angle_alpha   90.00000000
_cell_angle_beta   90.00000000
_cell_angle_gamma   90.00000000
_chemical_formula_structural   Al10Ta20
_chemical_formula_sum   'Al10 Ta20'
_cell_volume   532.30996362
loop_
 _symmetry_equiv_pos_site_id
 _symmetry_equiv_pos_as_xyz
  1  'x, y, z'
loop_
 _atom_type_symbol
  Al
  Ta
loop_
 _atom_site_type_symbol
 _atom_site_label
 _atom_site_symmetry_multiplicity
 _atom_site_fract_x
 _atom_site_fract_y
 _atom_site_fract_z
 _atom_site_occupancy
  Al  Al0  1  0.00000000  0.00000000  0.00000000  1
  Al  Al1  1  0.46498568  0.13616625  0.00000000  1
  Al  Al2  1  0.13616625  0.46498568  0.00000000  1
  Al  Al3  1  0.86383487  0.53501544  0.00000000  1
  Al  Al4  1  0.53501544  0.86383487  0.00000000  1
  Al  Al5  1  0.63616630  0.03501539  0.50000035  1
  Al  Al6  1  0.96498472  0.36383381  0.50000035  1
  Al  Al7  1  0.50000006  0.50000006  0.50000035  1
  Al  Al8  1  0.03501539  0.63616630  0.50000035  1
  Al  Al9  1  0.36383381  0.96498472  0.50000035  1
  Ta  Ta0  1  0.73701574  0.06288939  0.00000000  1
  Ta  Ta1  1  0.93711073  0.26298336  0.00000000  1
  Ta  Ta2  1  0.40269208  0.40269208  0.00000000  1
  Ta  Ta3  1  0.59730803  0.59730803  0.00000000  1
  Ta  Ta4  1  0.06288939  0.73701574  0.00000000  1
  Ta  Ta5  1  0.26298336  0.93711073  0.00000000  1
  Ta  Ta6  1  0.18771349  0.18771349  0.24820063  1
  Ta  Ta7  1  0.81228763  0.81228763  0.24820063  1
  Ta  Ta8  1  0.68771354  0.31228758  0.25179972  1
  Ta  Ta9  1  0.31228758  0.68771354  0.25179972  1
  Ta  Ta10  1  0.90269314  0.09730798  0.50000035  1
  Ta  Ta11  1  0.43710966  0.23701669  0.50000035  1
  Ta  Ta12  1  0.23701669  0.43710966  0.50000035  1
  Ta  Ta13  1  0.76298443  0.56288944  0.50000035  1
  Ta  Ta14  1  0.56288944  0.76298443  0.50000035  1
  Ta  Ta15  1  0.09730798  0.90269314  0.50000035  1
  Ta  Ta16  1  0.68771354  0.31228758  0.74820098  1
  Ta  Ta17  1  0.31228758  0.68771354  0.74820098  1
  Ta  Ta18  1  0.18771349  0.18771349  0.75180008  1
  Ta  Ta19  1  0.81228763  0.81228763  0.75180008  1
