# generated using pymatgen
data_4283_Cu2Mn2
_symmetry_space_group_name_H-M   'Cmcm'
_cell_length_a   2.70692602
_cell_length_b   5.02850418
_cell_length_c   4.08941563
_cell_angle_alpha   90.00000000
_cell_angle_beta   90.00000000
_cell_angle_gamma   105.61417952
_chemical_formula_structural   Cu2Mn2
_chemical_formula_sum   'Cu2 Mn2'
_cell_volume   53.61002718
loop_
 _symmetry_equiv_pos_site_id
 _symmetry_equiv_pos_as_xyz
  1  'x, y, z'
loop_
 _atom_type_symbol
  Cu
  Mn
loop_
 _atom_site_type_symbol
 _atom_site_label
 _atom_site_symmetry_multiplicity
 _atom_site_fract_x
 _atom_site_fract_y
 _atom_site_fract_z
 _atom_site_occupancy
  Cu  Cu0  1  0.42689059  0.85378118  0.25000000  1
  Cu  Cu1  1  0.57310941  0.14621882  0.75000000  1
  Mn  Mn0  1  0.16382081  0.32764162  0.25000000  1
  Mn  Mn1  1  0.83617919  0.67235838  0.75000000  1
