# generated using pymatgen
data_4287_Ba4W2
_symmetry_space_group_name_H-M   'Pnnm'
_cell_length_a   3.68754691
_cell_length_b   8.08354605
_cell_length_c   8.30576003
_cell_angle_alpha   90.00000000
_cell_angle_beta   90.00000000
_cell_angle_gamma   90.00000000
_chemical_formula_structural   Ba4W2
_chemical_formula_sum   'Ba4 W2'
_cell_volume   247.58187624
loop_
 _symmetry_equiv_pos_site_id
 _symmetry_equiv_pos_as_xyz
  1  'x, y, z'
loop_
 _atom_type_symbol
  Ba
  W
loop_
 _atom_site_type_symbol
 _atom_site_label
 _atom_site_symmetry_multiplicity
 _atom_site_fract_x
 _atom_site_fract_y
 _atom_site_fract_z
 _atom_site_occupancy
  Ba  Ba0  1  0.00000000  0.21161386  0.66603470  1
  Ba  Ba1  1  0.00000000  0.78838614  0.33396530  1
  Ba  Ba2  1  0.50000000  0.71161386  0.83396530  1
  Ba  Ba3  1  0.50000000  0.28838614  0.16603470  1
  W  W0  1  0.00000000  0.00000000  0.00000000  1
  W  W1  1  0.50000000  0.50000000  0.50000000  1
