# generated using pymatgen
data_4289_K32Ge32
_symmetry_space_group_name_H-M   'P-43n'
_cell_length_a   12.83829375
_cell_length_b   12.83829375
_cell_length_c   12.83829375
_cell_angle_alpha   90.00000000
_cell_angle_beta   90.00000000
_cell_angle_gamma   90.00000000
_chemical_formula_structural   K32Ge32
_chemical_formula_sum   'Ge32 K32'
_cell_volume   2116.03051035
loop_
 _symmetry_equiv_pos_site_id
 _symmetry_equiv_pos_as_xyz
  1  'x, y, z'
loop_
 _atom_type_symbol
  Ge
  K
loop_
 _atom_site_type_symbol
 _atom_site_label
 _atom_site_symmetry_multiplicity
 _atom_site_fract_x
 _atom_site_fract_y
 _atom_site_fract_z
 _atom_site_occupancy
  Ge  Ge0  1  0.92845309  0.92845309  0.07154691  1
  Ge  Ge1  1  0.07154691  0.07154691  0.07154691  1
  Ge  Ge2  1  0.07154691  0.92845309  0.92845309  1
  Ge  Ge3  1  0.92845309  0.07154691  0.92845309  1
  Ge  Ge4  1  0.42845309  0.42845309  0.57154691  1
  Ge  Ge5  1  0.57154691  0.57154691  0.57154691  1
  Ge  Ge6  1  0.42845309  0.57154691  0.42845309  1
  Ge  Ge7  1  0.57154691  0.42845309  0.42845309  1
  Ge  Ge8  1  0.93477022  0.67965365  0.42145888  1
  Ge  Ge9  1  0.06522978  0.32034635  0.42145888  1
  Ge  Ge10  1  0.06522978  0.67965365  0.57854112  1
  Ge  Ge11  1  0.93477022  0.32034635  0.57854112  1
  Ge  Ge12  1  0.57854112  0.93477022  0.32034635  1
  Ge  Ge13  1  0.57854112  0.06522978  0.67965365  1
  Ge  Ge14  1  0.42145888  0.06522978  0.32034635  1
  Ge  Ge15  1  0.42145888  0.93477022  0.67965365  1
  Ge  Ge16  1  0.67965365  0.57854112  0.06522978  1
  Ge  Ge17  1  0.32034635  0.57854112  0.93477022  1
  Ge  Ge18  1  0.67965365  0.42145888  0.93477022  1
  Ge  Ge19  1  0.32034635  0.42145888  0.06522978  1
  Ge  Ge20  1  0.17965365  0.43477022  0.92145888  1
  Ge  Ge21  1  0.82034635  0.56522978  0.92145888  1
  Ge  Ge22  1  0.17965365  0.56522978  0.07854112  1
  Ge  Ge23  1  0.82034635  0.43477022  0.07854112  1
  Ge  Ge24  1  0.43477022  0.07854112  0.82034635  1
  Ge  Ge25  1  0.56522978  0.07854112  0.17965365  1
  Ge  Ge26  1  0.56522978  0.92145888  0.82034635  1
  Ge  Ge27  1  0.43477022  0.92145888  0.17965365  1
  Ge  Ge28  1  0.07854112  0.17965365  0.56522978  1
  Ge  Ge29  1  0.07854112  0.82034635  0.43477022  1
  Ge  Ge30  1  0.92145888  0.17965365  0.43477022  1
  Ge  Ge31  1  0.92145888  0.82034635  0.56522978  1
  K  K0  1  0.66586347  0.66586347  0.33413653  1
  K  K1  1  0.33413653  0.33413653  0.33413653  1
  K  K2  1  0.33413653  0.66586347  0.66586347  1
  K  K3  1  0.66586347  0.33413653  0.66586347  1
  K  K4  1  0.16586347  0.16586347  0.83413653  1
  K  K5  1  0.83413653  0.83413653  0.83413653  1
  K  K6  1  0.16586347  0.83413653  0.16586347  1
  K  K7  1  0.83413653  0.16586347  0.16586347  1
  K  K8  1  0.66268635  0.86102169  0.06674565  1
  K  K9  1  0.33731365  0.13897831  0.06674565  1
  K  K10  1  0.33731365  0.86102169  0.93325435  1
  K  K11  1  0.66268635  0.13897831  0.93325435  1
  K  K12  1  0.93325435  0.66268635  0.13897831  1
  K  K13  1  0.93325435  0.33731365  0.86102169  1
  K  K14  1  0.06674565  0.33731365  0.13897831  1
  K  K15  1  0.06674565  0.66268635  0.86102169  1
  K  K16  1  0.86102169  0.93325435  0.33731365  1
  K  K17  1  0.13897831  0.93325435  0.66268635  1
  K  K18  1  0.86102169  0.06674565  0.66268635  1
  K  K19  1  0.13897831  0.06674565  0.33731365  1
  K  K20  1  0.36102169  0.16268635  0.56674565  1
  K  K21  1  0.63897831  0.83731365  0.56674565  1
  K  K22  1  0.36102169  0.83731365  0.43325435  1
  K  K23  1  0.63897831  0.16268635  0.43325435  1
  K  K24  1  0.16268635  0.43325435  0.63897831  1
  K  K25  1  0.83731365  0.43325435  0.36102169  1
  K  K26  1  0.83731365  0.56674565  0.63897831  1
  K  K27  1  0.16268635  0.56674565  0.36102169  1
  K  K28  1  0.43325435  0.36102169  0.83731365  1
  K  K29  1  0.43325435  0.63897831  0.16268635  1
  K  K30  1  0.56674565  0.36102169  0.16268635  1
  K  K31  1  0.56674565  0.63897831  0.83731365  1
