# generated using pymatgen
data_4290_Mo2W2
_symmetry_space_group_name_H-M   'Fd -3 m'
_cell_length_a   4.49876792
_cell_length_b   4.49876792
_cell_length_c   4.49876792
_cell_angle_alpha   59.82568233
_cell_angle_beta   59.82568233
_cell_angle_gamma   59.82568236
_chemical_formula_structural   Mo2W2
_chemical_formula_sum   'Mo2 W2'
_cell_volume   64.12746377
loop_
 _symmetry_equiv_pos_site_id
 _symmetry_equiv_pos_as_xyz
  1  'x, y, z'
loop_
 _atom_type_symbol
  Mo
  W
loop_
 _atom_site_type_symbol
 _atom_site_label
 _atom_site_symmetry_multiplicity
 _atom_site_fract_x
 _atom_site_fract_y
 _atom_site_fract_z
 _atom_site_occupancy
  Mo  Mo0  1  0.62552235  0.62552235  0.62552235  1
  Mo  Mo1  1  0.37447765  0.37447765  0.37447765  1
  W  W0  1  0.87484067  0.87484067  0.87484067  1
  W  W1  1  0.12515933  0.12515933  0.12515933  1
