# generated using pymatgen
data_4295_AuAs5
_symmetry_space_group_name_H-M   'Cmmm'
_cell_length_a   6.67698695
_cell_length_b   6.67698695
_cell_length_c   4.29301707
_cell_angle_alpha   90.00000000
_cell_angle_beta   90.00000000
_cell_angle_gamma   142.60947634
_chemical_formula_structural   AuAs5
_chemical_formula_sum   'As5 Au1'
_cell_volume   116.22169827
loop_
 _symmetry_equiv_pos_site_id
 _symmetry_equiv_pos_as_xyz
  1  'x, y, z'
loop_
 _atom_type_symbol
  As
  Au
loop_
 _atom_site_type_symbol
 _atom_site_label
 _atom_site_symmetry_multiplicity
 _atom_site_fract_x
 _atom_site_fract_y
 _atom_site_fract_z
 _atom_site_occupancy
  As  As0  1  0.80573554  0.19426446  0.50000000  1
  As  As1  1  0.63551968  0.36448032  0.00000000  1
  As  As2  1  0.47201557  0.52798443  0.50000000  1
  As  As3  1  0.30940240  0.69059760  0.00000000  1
  As  As4  1  0.13817876  0.86182124  0.50000000  1
  Au  Au0  1  0.97248138  0.02751862  0.00000000  1
