# generated using pymatgen
data_4300_BaPa
_symmetry_space_group_name_H-M   'Fm -3 m'
_cell_length_a   4.64683424
_cell_length_b   4.64683424
_cell_length_c   4.64683424
_cell_angle_alpha   60.00000000
_cell_angle_beta   60.00000000
_cell_angle_gamma   60.00000000
_chemical_formula_structural   BaPa
_chemical_formula_sum   'Ba1 Pa1'
_cell_volume   70.95067698
loop_
 _symmetry_equiv_pos_site_id
 _symmetry_equiv_pos_as_xyz
  1  'x, y, z'
loop_
 _atom_type_symbol
  Ba
  Pa
loop_
 _atom_site_type_symbol
 _atom_site_label
 _atom_site_symmetry_multiplicity
 _atom_site_fract_x
 _atom_site_fract_y
 _atom_site_fract_z
 _atom_site_occupancy
  Ba  Ba0  1  0.00000000  0.00000000  0.00000000  1
  Pa  Pa0  1  0.50000030  0.50000030  0.50000030  1
