# generated using pymatgen
data_4302_Rh2As4
_symmetry_space_group_name_H-M   'Cmcm'
_cell_length_a   6.23904428
_cell_length_b   6.23904428
_cell_length_c   4.94285417
_cell_angle_alpha   90.00000000
_cell_angle_beta   90.00000000
_cell_angle_gamma   147.52358088
_chemical_formula_structural   Rh2As4
_chemical_formula_sum   'As4 Rh2'
_cell_volume   103.31176091
loop_
 _symmetry_equiv_pos_site_id
 _symmetry_equiv_pos_as_xyz
  1  'x, y, z'
loop_
 _atom_type_symbol
  As
  Rh
loop_
 _atom_site_type_symbol
 _atom_site_label
 _atom_site_symmetry_multiplicity
 _atom_site_fract_x
 _atom_site_fract_y
 _atom_site_fract_z
 _atom_site_occupancy
  As  As0  1  0.03678768  0.96321232  0.00000000  1
  As  As1  1  0.34758254  0.65241746  0.00000000  1
  As  As2  1  0.43019524  0.56980476  0.50000000  1
  As  As3  1  0.74099009  0.25900991  0.50000000  1
  Rh  Rh0  1  0.69073753  0.30926247  0.00000000  1
  Rh  Rh1  1  0.08704024  0.91295976  0.50000000  1
