# generated using pymatgen
data_4305_InPd
_symmetry_space_group_name_H-M   'P-6m2'
_cell_length_a   3.19651495
_cell_length_b   3.19651615
_cell_length_c   4.21206973
_cell_angle_alpha   90.00000000
_cell_angle_beta   90.00000000
_cell_angle_gamma   119.99997711
_chemical_formula_structural   InPd
_chemical_formula_sum   'In1 Pd1'
_cell_volume   37.27176227
loop_
 _symmetry_equiv_pos_site_id
 _symmetry_equiv_pos_as_xyz
  1  'x, y, z'
loop_
 _atom_type_symbol
  In
  Pd
loop_
 _atom_site_type_symbol
 _atom_site_label
 _atom_site_symmetry_multiplicity
 _atom_site_fract_x
 _atom_site_fract_y
 _atom_site_fract_z
 _atom_site_occupancy
  In  In0  1  0.66666653  0.33333385  0.75000107  1
  Pd  Pd0  1  0.33333385  0.66666770  0.24999957  1
