# generated using pymatgen
data_4307_Au3Nb
_symmetry_space_group_name_H-M   'C2/m'
_cell_length_a   5.04039620
_cell_length_b   5.04039620
_cell_length_c   11.60293135
_cell_angle_alpha   149.10415345
_cell_angle_beta   149.10415345
_cell_angle_gamma   32.83797696
_chemical_formula_structural   Au3Nb
_chemical_formula_sum   'Au3 Nb1'
_cell_volume   71.43666329
loop_
 _symmetry_equiv_pos_site_id
 _symmetry_equiv_pos_as_xyz
  1  'x, y, z'
loop_
 _atom_type_symbol
  Au
  Nb
loop_
 _atom_site_type_symbol
 _atom_site_label
 _atom_site_symmetry_multiplicity
 _atom_site_fract_x
 _atom_site_fract_y
 _atom_site_fract_z
 _atom_site_occupancy
  Au  Au0  1  0.01331629  0.01331629  0.00842723  1
  Au  Au1  1  0.98668371  0.98668371  0.49157277  1
  Au  Au2  1  0.00000000  0.00000000  0.75000000  1
  Nb  Nb0  1  0.00000000  0.00000000  0.25000000  1
