# generated using pymatgen
data_4309_SrBr
_symmetry_space_group_name_H-M   'P-6m2'
_cell_length_a   4.08422293
_cell_length_b   4.08418036
_cell_length_c   4.69051809
_cell_angle_alpha   90.00000000
_cell_angle_beta   90.00000000
_cell_angle_gamma   120.00033601
_chemical_formula_structural   SrBr
_chemical_formula_sum   'Br1 Sr1'
_cell_volume   67.75858504
loop_
 _symmetry_equiv_pos_site_id
 _symmetry_equiv_pos_as_xyz
  1  'x, y, z'
loop_
 _atom_type_symbol
  Br
  Sr
loop_
 _atom_site_type_symbol
 _atom_site_label
 _atom_site_symmetry_multiplicity
 _atom_site_fract_x
 _atom_site_fract_y
 _atom_site_fract_z
 _atom_site_occupancy
  Br  Br0  1  0.66666731  0.33333361  0.75000000  1
  Sr  Sr0  1  0.33333269  0.66666639  0.25000000  1
