# generated using pymatgen
data_4310_Ca2Mo2
_symmetry_space_group_name_H-M   'Imma'
_cell_length_a   6.05386481
_cell_length_b   6.05386481
_cell_length_c   6.05386481
_cell_angle_alpha   146.75788384
_cell_angle_beta   126.09654220
_cell_angle_gamma   64.81710248
_chemical_formula_structural   Ca2Mo2
_chemical_formula_sum   'Ca2 Mo2'
_cell_volume   97.13678010
loop_
 _symmetry_equiv_pos_site_id
 _symmetry_equiv_pos_as_xyz
  1  'x, y, z'
loop_
 _atom_type_symbol
  Ca
  Mo
loop_
 _atom_site_type_symbol
 _atom_site_label
 _atom_site_symmetry_multiplicity
 _atom_site_fract_x
 _atom_site_fract_y
 _atom_site_fract_z
 _atom_site_occupancy
  Ca  Ca0  1  0.35459239  0.60459239  0.25000000  1
  Ca  Ca1  1  0.64540761  0.39540761  0.75000000  1
  Mo  Mo0  1  0.92027176  0.17027176  0.25000000  1
  Mo  Mo1  1  0.07972824  0.82972824  0.75000000  1
