# generated using pymatgen
data_4314_Ag2Al4
_symmetry_space_group_name_H-M   'Fd -3 m'
_cell_length_a   5.34641317
_cell_length_b   5.34641317
_cell_length_c   5.34641317
_cell_angle_alpha   60.00000000
_cell_angle_beta   60.00000000
_cell_angle_gamma   60.00000000
_chemical_formula_structural   Ag2Al4
_chemical_formula_sum   'Ag2 Al4'
_cell_volume   108.06188944
loop_
 _symmetry_equiv_pos_site_id
 _symmetry_equiv_pos_as_xyz
  1  'x, y, z'
loop_
 _atom_type_symbol
  Ag
  Al
loop_
 _atom_site_type_symbol
 _atom_site_label
 _atom_site_symmetry_multiplicity
 _atom_site_fract_x
 _atom_site_fract_y
 _atom_site_fract_z
 _atom_site_occupancy
  Ag  Ag0  1  0.87500000  0.87500000  0.37500000  1
  Ag  Ag1  1  0.12500000  0.12500000  0.62500000  1
  Al  Al0  1  0.50000000  0.50000000  0.50000000  1
  Al  Al1  1  0.00000000  0.50000000  0.00000000  1
  Al  Al2  1  0.50000000  0.00000000  0.00000000  1
  Al  Al3  1  0.50000000  0.50000000  0.00000000  1
