# generated using pymatgen
data_4316_Cu3Ta
_symmetry_space_group_name_H-M   'Immm'
_cell_length_a   4.51716949
_cell_length_b   5.16883839
_cell_length_c   2.74057404
_cell_angle_alpha   74.62678365
_cell_angle_beta   90.00000000
_cell_angle_gamma   115.91018986
_chemical_formula_structural   Cu3Ta
_chemical_formula_sum   'Cu3 Ta1'
_cell_volume   54.99959413
loop_
 _symmetry_equiv_pos_site_id
 _symmetry_equiv_pos_as_xyz
  1  'x, y, z'
loop_
 _atom_type_symbol
  Cu
  Ta
loop_
 _atom_site_type_symbol
 _atom_site_label
 _atom_site_symmetry_multiplicity
 _atom_site_fract_x
 _atom_site_fract_y
 _atom_site_fract_z
 _atom_site_occupancy
  Cu  Cu0  1  0.01691014  0.03382028  0.98308986  1
  Cu  Cu1  1  0.25000000  0.50000000  0.25000000  1
  Cu  Cu2  1  0.48308986  0.96617972  0.51691014  1
  Ta  Ta0  1  0.75000000  0.50000000  0.75000000  1
