# generated using pymatgen
data_4317_Ag4Nb2
_symmetry_space_group_name_H-M   'Cm'
_cell_length_a   5.84116342
_cell_length_b   5.84116342
_cell_length_c   11.51268209
_cell_angle_alpha   141.78016577
_cell_angle_beta   141.78016577
_cell_angle_gamma   28.06641882
_chemical_formula_structural   Ag4Nb2
_chemical_formula_sum   'Ag4 Nb2'
_cell_volume   108.42739656
loop_
 _symmetry_equiv_pos_site_id
 _symmetry_equiv_pos_as_xyz
  1  'x, y, z'
loop_
 _atom_type_symbol
  Ag
  Nb
loop_
 _atom_site_type_symbol
 _atom_site_label
 _atom_site_symmetry_multiplicity
 _atom_site_fract_x
 _atom_site_fract_y
 _atom_site_fract_z
 _atom_site_occupancy
  Ag  Ag0  1  0.99451145  0.99451145  0.99733464  1
  Ag  Ag1  1  0.10840262  0.10840262  0.72019915  1
  Ag  Ag2  1  0.33331501  0.33331501  0.66750826  1
  Ag  Ag3  1  0.67560494  0.67560494  0.33963608  1
  Nb  Nb0  1  0.43257243  0.43257243  0.36970144  1
  Nb  Nb1  1  0.78892689  0.78892689  0.07228710  1
