# generated using pymatgen
data_4325_Au4Ba2
_symmetry_space_group_name_H-M   'Pnnm'
_cell_length_a   4.22283863
_cell_length_b   4.51744824
_cell_length_c   9.41154381
_cell_angle_alpha   90.00000000
_cell_angle_beta   90.00000000
_cell_angle_gamma   90.00000000
_chemical_formula_structural   Au4Ba2
_chemical_formula_sum   'Au4 Ba2'
_cell_volume   179.53889138
loop_
 _symmetry_equiv_pos_site_id
 _symmetry_equiv_pos_as_xyz
  1  'x, y, z'
loop_
 _atom_type_symbol
  Au
  Ba
loop_
 _atom_site_type_symbol
 _atom_site_label
 _atom_site_symmetry_multiplicity
 _atom_site_fract_x
 _atom_site_fract_y
 _atom_site_fract_z
 _atom_site_occupancy
  Au  Au0  1  0.00000000  0.98015017  0.65480170  1
  Au  Au1  1  0.00000000  0.01984983  0.34519830  1
  Au  Au2  1  0.50000000  0.48015017  0.84519830  1
  Au  Au3  1  0.50000000  0.51984983  0.15480170  1
  Ba  Ba0  1  0.00000000  0.00000000  0.00000000  1
  Ba  Ba1  1  0.50000000  0.50000000  0.50000000  1
