# generated using pymatgen
data_4329_Na5Pb
_symmetry_space_group_name_H-M   'Cmmm'
_cell_length_a   7.72087867
_cell_length_b   7.72087867
_cell_length_c   5.00941256
_cell_angle_alpha   90.00000000
_cell_angle_beta   90.00000000
_cell_angle_gamma   140.23450367
_chemical_formula_structural   Na5Pb
_chemical_formula_sum   'Na5 Pb1'
_cell_volume   191.01196394
loop_
 _symmetry_equiv_pos_site_id
 _symmetry_equiv_pos_as_xyz
  1  'x, y, z'
loop_
 _atom_type_symbol
  Na
  Pb
loop_
 _atom_site_type_symbol
 _atom_site_label
 _atom_site_symmetry_multiplicity
 _atom_site_fract_x
 _atom_site_fract_y
 _atom_site_fract_z
 _atom_site_occupancy
  Na  Na0  1  0.81783596  0.18216404  0.50000000  1
  Na  Na1  1  0.62806752  0.37193248  0.00000000  1
  Na  Na2  1  0.47221565  0.52778435  0.50000000  1
  Na  Na3  1  0.31635416  0.68364584  0.00000000  1
  Na  Na4  1  0.12662003  0.87337997  0.50000000  1
  Pb  Pb0  1  0.97224001  0.02775999  0.00000000  1
