# generated using pymatgen
data_4331_Rh3Ta
_symmetry_space_group_name_H-M   'Imm2'
_cell_length_a   5.22446827
_cell_length_b   5.22446827
_cell_length_c   5.22446827
_cell_angle_alpha   148.34115944
_cell_angle_beta   125.50649917
_cell_angle_gamma   64.40648513
_chemical_formula_structural   Rh3Ta
_chemical_formula_sum   'Rh3 Ta1'
_cell_volume   60.27563910
loop_
 _symmetry_equiv_pos_site_id
 _symmetry_equiv_pos_as_xyz
  1  'x, y, z'
loop_
 _atom_type_symbol
  Rh
  Ta
loop_
 _atom_site_type_symbol
 _atom_site_label
 _atom_site_symmetry_multiplicity
 _atom_site_fract_x
 _atom_site_fract_y
 _atom_site_fract_z
 _atom_site_occupancy
  Rh  Rh0  1  0.99253479  0.99767900  0.99485578  1
  Rh  Rh1  1  0.09450124  0.75000000  0.34450124  1
  Rh  Rh2  1  0.49717678  0.50232100  0.99485578  1
  Ta  Ta0  1  0.58245387  0.25000000  0.33245387  1
