# generated using pymatgen
data_4333_MoSr3
_symmetry_space_group_name_H-M   'Pmm2'
_cell_length_a   4.04685396
_cell_length_b   5.97468624
_cell_length_c   6.53115100
_cell_angle_alpha   90.00000000
_cell_angle_beta   90.00000000
_cell_angle_gamma   90.00000000
_chemical_formula_structural   MoSr3
_chemical_formula_sum   'Mo1 Sr3'
_cell_volume   157.91462750
loop_
 _symmetry_equiv_pos_site_id
 _symmetry_equiv_pos_as_xyz
  1  'x, y, z'
loop_
 _atom_type_symbol
  Mo
  Sr
loop_
 _atom_site_type_symbol
 _atom_site_label
 _atom_site_symmetry_multiplicity
 _atom_site_fract_x
 _atom_site_fract_y
 _atom_site_fract_z
 _atom_site_occupancy
  Mo  Mo0  1  0.00000000  0.00000000  0.01119179  1
  Sr  Sr0  1  0.50000000  0.00000000  0.48218838  1
  Sr  Sr1  1  0.50000000  0.50000000  0.85809028  1
  Sr  Sr2  1  0.00000000  0.50000000  0.31519622  1
