# generated using pymatgen
data_4337_Al12As17
_symmetry_space_group_name_H-M   'I-43m'
_cell_length_a   9.12960207
_cell_length_b   9.12960207
_cell_length_c   9.12960207
_cell_angle_alpha   109.47122063
_cell_angle_beta   109.47122063
_cell_angle_gamma   109.47122063
_chemical_formula_structural   Al12As17
_chemical_formula_sum   'Al12 As17'
_cell_volume   585.77880526
loop_
 _symmetry_equiv_pos_site_id
 _symmetry_equiv_pos_as_xyz
  1  'x, y, z'
loop_
 _atom_type_symbol
  Al
  As
loop_
 _atom_site_type_symbol
 _atom_site_label
 _atom_site_symmetry_multiplicity
 _atom_site_fract_x
 _atom_site_fract_y
 _atom_site_fract_z
 _atom_site_occupancy
  Al  Al0  1  0.20365304  0.00000000  0.46834795  1
  Al  Al1  1  0.46834795  0.00000000  0.20365304  1
  Al  Al2  1  0.53165205  0.73530509  0.53165205  1
  Al  Al3  1  0.79634696  0.26469491  0.79634696  1
  Al  Al4  1  1.00000000  0.20365304  0.46834795  1
  Al  Al5  1  1.00000000  0.46834795  0.20365304  1
  Al  Al6  1  0.26469491  0.79634696  0.79634696  1
  Al  Al7  1  0.73530509  0.53165205  0.53165205  1
  Al  Al8  1  0.79634696  0.79634696  0.26469491  1
  Al  Al9  1  0.53165205  0.53165205  0.73530509  1
  Al  Al10  1  0.20365304  0.46834795  0.00000000  1
  Al  Al11  1  0.46834795  0.20365304  0.00000000  1
  As  As0  1  0.73557827  0.00000000  0.49963449  1
  As  As1  1  0.49963449  0.00000000  0.73557827  1
  As  As2  1  0.50036551  0.23594378  0.50036551  1
  As  As3  1  0.26442173  0.76405622  0.26442173  1
  As  As4  1  1.00000000  0.73557827  0.49963449  1
  As  As5  1  1.00000000  0.49963449  0.73557827  1
  As  As6  1  0.76405622  0.26442173  0.26442173  1
  As  As7  1  0.23594378  0.50036551  0.50036551  1
  As  As8  1  0.26442173  0.26442173  0.76405622  1
  As  As9  1  0.50036551  0.50036551  0.23594378  1
  As  As10  1  0.73557827  0.49963449  0.00000000  1
  As  As11  1  0.49963449  0.73557827  0.00000000  1
  As  As12  1  0.00000000  0.00000000  0.71795494  1
  As  As13  1  0.71795494  0.00000000  0.00000000  1
  As  As14  1  0.28204506  0.28204506  0.28204506  1
  As  As15  1  0.00000000  0.71795494  0.00000000  1
  As  As16  1  0.00000000  0.00000000  0.00000000  1
