# generated using pymatgen
data_4339_AlCu2
_symmetry_space_group_name_H-M   'Immm'
_cell_length_a   4.59802458
_cell_length_b   4.59802458
_cell_length_c   4.59802458
_cell_angle_alpha   143.81097783
_cell_angle_beta   138.03789563
_cell_angle_gamma   56.58764945
_chemical_formula_structural   AlCu2
_chemical_formula_sum   'Al1 Cu2'
_cell_volume   38.07615343
loop_
 _symmetry_equiv_pos_site_id
 _symmetry_equiv_pos_as_xyz
  1  'x, y, z'
loop_
 _atom_type_symbol
  Al
  Cu
loop_
 _atom_site_type_symbol
 _atom_site_label
 _atom_site_symmetry_multiplicity
 _atom_site_fract_x
 _atom_site_fract_y
 _atom_site_fract_z
 _atom_site_occupancy
  Al  Al0  1  0.00000000  0.00000000  0.00000000  1
  Cu  Cu0  1  0.33349888  0.33349888  1.00000000  1
  Cu  Cu1  1  0.66650112  0.66650112  1.00000000  1
