# generated using pymatgen
data_4346_KV3
_symmetry_space_group_name_H-M   'Imm2'
_cell_length_a   6.18967758
_cell_length_b   6.18967758
_cell_length_c   6.18967758
_cell_angle_alpha   157.11611455
_cell_angle_beta   125.60489506
_cell_angle_gamma   59.76901621
_chemical_formula_structural   KV3
_chemical_formula_sum   'K1 V3'
_cell_volume   74.56908019
loop_
 _symmetry_equiv_pos_site_id
 _symmetry_equiv_pos_as_xyz
  1  'x, y, z'
loop_
 _atom_type_symbol
  K
  V
loop_
 _atom_site_type_symbol
 _atom_site_label
 _atom_site_symmetry_multiplicity
 _atom_site_fract_x
 _atom_site_fract_y
 _atom_site_fract_z
 _atom_site_occupancy
  K  K0  1  0.02533364  0.00000000  0.02533364  1
  V  V0  1  0.52409400  0.50000000  0.02409400  1
  V  V1  1  0.85951559  0.21756274  0.64195285  1
  V  V2  1  0.42439010  0.78243726  0.64195285  1
