# generated using pymatgen
data_4349_Ir3Ta3
_symmetry_space_group_name_H-M   'Cm'
_cell_length_a   2.91862085
_cell_length_b   5.43493302
_cell_length_c   6.72487921
_cell_angle_alpha   73.92128479
_cell_angle_beta   90.00000000
_cell_angle_gamma   105.57536591
_chemical_formula_structural   Ir3Ta3
_chemical_formula_sum   'Ir3 Ta3'
_cell_volume   98.41741368
loop_
 _symmetry_equiv_pos_site_id
 _symmetry_equiv_pos_as_xyz
  1  'x, y, z'
loop_
 _atom_type_symbol
  Ir
  Ta
loop_
 _atom_site_type_symbol
 _atom_site_label
 _atom_site_symmetry_multiplicity
 _atom_site_fract_x
 _atom_site_fract_y
 _atom_site_fract_z
 _atom_site_occupancy
  Ir  Ir0  1  0.01496239  0.02992478  0.99333153  1
  Ir  Ir1  1  0.39262128  0.78524255  0.72683215  1
  Ir  Ir2  1  0.31969345  0.63938690  0.33572735  1
  Ta  Ta0  1  0.67452845  0.34905690  0.66518954  1
  Ta  Ta1  1  0.03032536  0.06065073  0.38340203  1
  Ta  Ta2  1  0.73453573  0.46907147  0.06218405  1
