# generated using pymatgen
data_4352_Mn2Rh4
_symmetry_space_group_name_H-M   'Cmcm'
_cell_length_a   5.89292912
_cell_length_b   5.89292912
_cell_length_c   3.76953705
_cell_angle_alpha   90.00000000
_cell_angle_beta   90.00000000
_cell_angle_gamma   143.02416453
_chemical_formula_structural   Mn2Rh4
_chemical_formula_sum   'Mn2 Rh4'
_cell_volume   78.73544779
loop_
 _symmetry_equiv_pos_site_id
 _symmetry_equiv_pos_as_xyz
  1  'x, y, z'
loop_
 _atom_type_symbol
  Mn
  Rh
loop_
 _atom_site_type_symbol
 _atom_site_label
 _atom_site_symmetry_multiplicity
 _atom_site_fract_x
 _atom_site_fract_y
 _atom_site_fract_z
 _atom_site_occupancy
  Mn  Mn0  1  0.92311027  0.07688973  0.25000000  1
  Mn  Mn1  1  0.07688973  0.92311027  0.75000000  1
  Rh  Rh0  1  0.57946210  0.42053790  0.25000000  1
  Rh  Rh1  1  0.42053790  0.57946210  0.75000000  1
  Rh  Rh2  1  0.25310531  0.74689469  0.25000000  1
  Rh  Rh3  1  0.74689469  0.25310531  0.75000000  1
