# generated using pymatgen
data_4356_Fe5Sb3
_symmetry_space_group_name_H-M   'Cmmm'
_cell_length_a   5.31480311
_cell_length_b   5.31480311
_cell_length_c   4.05619622
_cell_angle_alpha   90.00000000
_cell_angle_beta   90.00000000
_cell_angle_gamma   100.73270846
_chemical_formula_structural   Fe5Sb3
_chemical_formula_sum   'Fe5 Sb3'
_cell_volume   112.57159351
loop_
 _symmetry_equiv_pos_site_id
 _symmetry_equiv_pos_as_xyz
  1  'x, y, z'
loop_
 _atom_type_symbol
  Fe
  Sb
loop_
 _atom_site_type_symbol
 _atom_site_label
 _atom_site_symmetry_multiplicity
 _atom_site_fract_x
 _atom_site_fract_y
 _atom_site_fract_z
 _atom_site_occupancy
  Fe  Fe0  1  0.00000000  0.00000000  0.00000000  1
  Fe  Fe1  1  0.00000000  0.50000000  0.00000000  1
  Fe  Fe2  1  0.50000000  0.00000000  0.00000000  1
  Fe  Fe3  1  0.28771419  0.28771419  0.50000000  1
  Fe  Fe4  1  0.71228581  0.71228581  0.50000000  1
  Sb  Sb0  1  0.50000000  0.50000000  0.00000000  1
  Sb  Sb1  1  0.79745683  0.20254317  0.50000000  1
  Sb  Sb2  1  0.20254317  0.79745683  0.50000000  1
