# generated using pymatgen
data_4358_Cu4Ir
_symmetry_space_group_name_H-M   'I4/mmm'
_cell_length_a   3.40622842
_cell_length_b   6.16938588
_cell_length_c   3.40622842
_cell_angle_alpha   73.97486918
_cell_angle_beta   90.00000000
_cell_angle_gamma   106.02513082
_chemical_formula_structural   Cu4Ir
_chemical_formula_sum   'Cu4 Ir1'
_cell_volume   65.89926439
loop_
 _symmetry_equiv_pos_site_id
 _symmetry_equiv_pos_as_xyz
  1  'x, y, z'
loop_
 _atom_type_symbol
  Cu
  Ir
loop_
 _atom_site_type_symbol
 _atom_site_label
 _atom_site_symmetry_multiplicity
 _atom_site_fract_x
 _atom_site_fract_y
 _atom_site_fract_z
 _atom_site_occupancy
  Cu  Cu0  1  0.25000000  0.50000000  0.25000000  1
  Cu  Cu1  1  0.40013020  0.80026040  0.59986980  1
  Cu  Cu2  1  0.59986980  0.19973960  0.40013020  1
  Cu  Cu3  1  0.75000000  0.50000000  0.75000000  1
  Ir  Ir0  1  0.00000000  0.00000000  0.00000000  1
