# generated using pymatgen
data_4359_MoPd
_symmetry_space_group_name_H-M   'P4/mmm'
_cell_length_a   3.84810455
_cell_length_b   3.84810455
_cell_length_c   4.14690831
_cell_angle_alpha   90.00000000
_cell_angle_beta   90.00000000
_cell_angle_gamma   90.00000000
_chemical_formula_structural   MoPd
_chemical_formula_sum   'Mo2 Pd2'
_cell_volume   61.40703934
loop_
 _symmetry_equiv_pos_site_id
 _symmetry_equiv_pos_as_xyz
  1  'x, y, z'
loop_
 _atom_type_symbol
  Mo
  Pd
loop_
 _atom_site_type_symbol
 _atom_site_label
 _atom_site_symmetry_multiplicity
 _atom_site_fract_x
 _atom_site_fract_y
 _atom_site_fract_z
 _atom_site_occupancy
  Mo  Mo0  1  0.25000000  0.75000000  0.00000000  1
  Mo  Mo1  1  0.75000000  0.25000000  0.00000000  1
  Pd  Pd0  1  0.25000000  0.25000000  0.49856663  1
  Pd  Pd1  1  0.75000000  0.75000000  0.50143337  1
