# generated using pymatgen
data_4361_EuNb
_symmetry_space_group_name_H-M   'P-6m2'
_cell_length_a   3.10224200
_cell_length_b   3.10220666
_cell_length_c   5.53726100
_cell_angle_alpha   90.00000000
_cell_angle_beta   90.00000000
_cell_angle_gamma   120.00039813
_chemical_formula_structural   EuNb
_chemical_formula_sum   'Eu1 Nb1'
_cell_volume   46.14984891
loop_
 _symmetry_equiv_pos_site_id
 _symmetry_equiv_pos_as_xyz
  1  'x, y, z'
loop_
 _atom_type_symbol
  Eu
  Nb
loop_
 _atom_site_type_symbol
 _atom_site_label
 _atom_site_symmetry_multiplicity
 _atom_site_fract_x
 _atom_site_fract_y
 _atom_site_fract_z
 _atom_site_occupancy
  Eu  Eu0  1  0.66666903  0.33333842  0.74999891  1
  Nb  Nb0  1  0.33333119  0.66666196  0.24999903  1
