# generated using pymatgen
data_4362_PbGe2
_symmetry_space_group_name_H-M   'I4/mmm'
_cell_length_a   6.03482957
_cell_length_b   6.03482957
_cell_length_c   6.03482957
_cell_angle_alpha   145.32482435
_cell_angle_beta   145.32482435
_cell_angle_gamma   49.85072536
_chemical_formula_structural   PbGe2
_chemical_formula_sum   'Ge2 Pb1'
_cell_volume   70.79947064
loop_
 _symmetry_equiv_pos_site_id
 _symmetry_equiv_pos_as_xyz
  1  'x, y, z'
loop_
 _atom_type_symbol
  Ge
  Pb
loop_
 _atom_site_type_symbol
 _atom_site_label
 _atom_site_symmetry_multiplicity
 _atom_site_fract_x
 _atom_site_fract_y
 _atom_site_fract_z
 _atom_site_occupancy
  Ge  Ge0  1  0.03134258  0.03134258  0.00000000  1
  Ge  Ge1  1  0.63532408  0.63532408  0.00000000  1
  Pb  Pb0  1  0.33333333  0.33333333  0.00000000  1
