# generated using pymatgen
data_4364_Al3Ni
_symmetry_space_group_name_H-M   'Imm2'
_cell_length_a   4.92875073
_cell_length_b   4.92875073
_cell_length_c   4.92875073
_cell_angle_alpha   143.74925768
_cell_angle_beta   123.01646996
_cell_angle_gamma   69.43210792
_chemical_formula_structural   Al3Ni
_chemical_formula_sum   'Al3 Ni1'
_cell_volume   58.42225797
loop_
 _symmetry_equiv_pos_site_id
 _symmetry_equiv_pos_as_xyz
  1  'x, y, z'
loop_
 _atom_type_symbol
  Al
  Ni
loop_
 _atom_site_type_symbol
 _atom_site_label
 _atom_site_symmetry_multiplicity
 _atom_site_fract_x
 _atom_site_fract_y
 _atom_site_fract_z
 _atom_site_occupancy
  Al  Al0  1  0.01085113  0.02701681  0.98383433  1
  Al  Al1  1  0.45681752  0.47298319  0.98383433  1
  Al  Al2  1  0.64895954  0.25000000  0.39895954  1
  Ni  Ni0  1  0.05003847  0.75000000  0.30003847  1
