# generated using pymatgen
data_4377_MnPd3
_symmetry_space_group_name_H-M   'Imm2'
_cell_length_a   4.73914894
_cell_length_b   5.29317571
_cell_length_c   2.86744324
_cell_angle_alpha   74.28441628
_cell_angle_beta   90.00000000
_cell_angle_gamma   116.59403127
_chemical_formula_structural   MnPd3
_chemical_formula_sum   'Mn1 Pd3'
_cell_volume   61.29827362
loop_
 _symmetry_equiv_pos_site_id
 _symmetry_equiv_pos_as_xyz
  1  'x, y, z'
loop_
 _atom_type_symbol
  Mn
  Pd
loop_
 _atom_site_type_symbol
 _atom_site_label
 _atom_site_symmetry_multiplicity
 _atom_site_fract_x
 _atom_site_fract_y
 _atom_site_fract_z
 _atom_site_occupancy
  Mn  Mn0  1  0.99335307  0.00000000  0.00000000  1
  Pd  Pd0  1  0.08941643  0.48614387  0.25692807  1
  Pd  Pd1  1  0.48062460  0.00000000  0.50000000  1
  Pd  Pd2  1  0.60327257  0.51385613  0.74307193  1
