# generated using pymatgen
data_4378_Au2As4
_symmetry_space_group_name_H-M   'Pnnm'
_cell_length_a   4.14168526
_cell_length_b   4.96692796
_cell_length_c   6.33515189
_cell_angle_alpha   90.00000000
_cell_angle_beta   90.00000000
_cell_angle_gamma   90.00000000
_chemical_formula_structural   Au2As4
_chemical_formula_sum   'As4 Au2'
_cell_volume   130.32327504
loop_
 _symmetry_equiv_pos_site_id
 _symmetry_equiv_pos_as_xyz
  1  'x, y, z'
loop_
 _atom_type_symbol
  As
  Au
loop_
 _atom_site_type_symbol
 _atom_site_label
 _atom_site_symmetry_multiplicity
 _atom_site_fract_x
 _atom_site_fract_y
 _atom_site_fract_z
 _atom_site_occupancy
  As  As0  1  0.00000000  0.20155671  0.61666956  1
  As  As1  1  0.00000000  0.79844329  0.38333044  1
  As  As2  1  0.50000000  0.70155671  0.88333044  1
  As  As3  1  0.50000000  0.29844329  0.11666956  1
  Au  Au0  1  0.00000000  0.00000000  0.00000000  1
  Au  Au1  1  0.50000000  0.50000000  0.50000000  1
