# generated using pymatgen
data_4386_Cu4K8
_symmetry_space_group_name_H-M   'Pa -3'
_cell_length_a   8.17875240
_cell_length_b   8.17875240
_cell_length_c   8.17875240
_cell_angle_alpha   90.00000000
_cell_angle_beta   90.00000000
_cell_angle_gamma   90.00000000
_chemical_formula_structural   Cu4K8
_chemical_formula_sum   'Cu4 K8'
_cell_volume   547.09303046
loop_
 _symmetry_equiv_pos_site_id
 _symmetry_equiv_pos_as_xyz
  1  'x, y, z'
loop_
 _atom_type_symbol
  Cu
  K
loop_
 _atom_site_type_symbol
 _atom_site_label
 _atom_site_symmetry_multiplicity
 _atom_site_fract_x
 _atom_site_fract_y
 _atom_site_fract_z
 _atom_site_occupancy
  Cu  Cu0  1  0.00000000  0.00000000  0.00000000  1
  Cu  Cu1  1  0.50000000  0.50000000  0.00000000  1
  Cu  Cu2  1  0.50000000  0.00000000  0.50000000  1
  Cu  Cu3  1  0.00000000  0.50000000  0.50000000  1
  K  K0  1  0.65645564  0.65645564  0.34354436  1
  K  K1  1  0.34354436  0.34354436  0.65645564  1
  K  K2  1  0.15645564  0.84354436  0.65645564  1
  K  K3  1  0.84354436  0.15645564  0.34354436  1
  K  K4  1  0.34354436  0.15645564  0.15645564  1
  K  K5  1  0.65645564  0.84354436  0.84354436  1
  K  K6  1  0.84354436  0.34354436  0.84354436  1
  K  K7  1  0.15645564  0.65645564  0.15645564  1
