# generated using pymatgen
data_4388_Nb2Ni4
_symmetry_space_group_name_H-M   'I4_1/amd'
_cell_length_a   3.24137920
_cell_length_b   8.41895464
_cell_length_c   3.24137920
_cell_angle_alpha   78.90099940
_cell_angle_beta   90.00000000
_cell_angle_gamma   101.09900060
_chemical_formula_structural   Nb2Ni4
_chemical_formula_sum   'Nb2 Ni4'
_cell_volume   85.11303674
loop_
 _symmetry_equiv_pos_site_id
 _symmetry_equiv_pos_as_xyz
  1  'x, y, z'
loop_
 _atom_type_symbol
  Nb
  Ni
loop_
 _atom_site_type_symbol
 _atom_site_label
 _atom_site_symmetry_multiplicity
 _atom_site_fract_x
 _atom_site_fract_y
 _atom_site_fract_z
 _atom_site_occupancy
  Nb  Nb0  1  0.00000000  0.00000000  0.00000000  1
  Nb  Nb1  1  0.75000000  0.50000000  0.75000000  1
  Ni  Ni0  1  0.17637019  0.35274038  0.32362981  1
  Ni  Ni1  1  0.32362981  0.64725962  0.17637019  1
  Ni  Ni2  1  0.42637019  0.85274038  0.57362981  1
  Ni  Ni3  1  0.57362981  0.14725962  0.42637019  1
