# generated using pymatgen
data_4393_V6W18
_symmetry_space_group_name_H-M   'Pmmn'
_cell_length_a   5.59955806
_cell_length_b   4.94528961
_cell_length_c   13.88355610
_cell_angle_alpha   90.00000000
_cell_angle_beta   90.00000000
_cell_angle_gamma   90.00000000
_chemical_formula_structural   V6W18
_chemical_formula_sum   'V6 W18'
_cell_volume   384.45560929
loop_
 _symmetry_equiv_pos_site_id
 _symmetry_equiv_pos_as_xyz
  1  'x, y, z'
loop_
 _atom_type_symbol
  V
  W
loop_
 _atom_site_type_symbol
 _atom_site_label
 _atom_site_symmetry_multiplicity
 _atom_site_fract_x
 _atom_site_fract_y
 _atom_site_fract_z
 _atom_site_occupancy
  V  V0  1  0.25000000  0.00000000  0.25000000  1
  V  V1  1  0.25000000  0.66666667  0.58333333  1
  V  V2  1  0.25000000  0.66666667  0.91666667  1
  V  V3  1  0.75000000  0.00000000  0.75000000  1
  V  V4  1  0.75000000  0.33333333  0.08333333  1
  V  V5  1  0.75000000  0.33333333  0.41666667  1
  W  W0  1  0.00000000  0.16666667  0.58333333  1
  W  W1  1  0.00000000  0.16666667  0.91666667  1
  W  W2  1  0.00000000  0.50000000  0.25000000  1
  W  W3  1  0.00000000  0.50000000  0.75000000  1
  W  W4  1  0.00000000  0.83333333  0.08333333  1
  W  W5  1  0.00000000  0.83333333  0.41666667  1
  W  W6  1  0.25000000  0.00000000  0.75000000  1
  W  W7  1  0.25000000  0.33333333  0.08333333  1
  W  W8  1  0.25000000  0.33333333  0.41666667  1
  W  W9  1  0.50000000  0.16666667  0.58333333  1
  W  W10  1  0.50000000  0.16666667  0.91666667  1
  W  W11  1  0.50000000  0.50000000  0.25000000  1
  W  W12  1  0.50000000  0.50000000  0.75000000  1
  W  W13  1  0.50000000  0.83333333  0.08333333  1
  W  W14  1  0.50000000  0.83333333  0.41666667  1
  W  W15  1  0.75000000  0.00000000  0.25000000  1
  W  W16  1  0.75000000  0.66666667  0.58333333  1
  W  W17  1  0.75000000  0.66666667  0.91666667  1
