# generated using pymatgen
data_4395_In3Mn
_symmetry_space_group_name_H-M   'Cmmm'
_cell_length_a   5.43829071
_cell_length_b   5.43829071
_cell_length_c   3.29635313
_cell_angle_alpha   90.00000000
_cell_angle_beta   90.00000000
_cell_angle_gamma   110.68052132
_chemical_formula_structural   In3Mn
_chemical_formula_sum   'In3 Mn1'
_cell_volume   91.20783336
loop_
 _symmetry_equiv_pos_site_id
 _symmetry_equiv_pos_as_xyz
  1  'x, y, z'
loop_
 _atom_type_symbol
  In
  Mn
loop_
 _atom_site_type_symbol
 _atom_site_label
 _atom_site_symmetry_multiplicity
 _atom_site_fract_x
 _atom_site_fract_y
 _atom_site_fract_z
 _atom_site_occupancy
  In  In0  1  0.00000000  0.50000000  0.50000000  1
  In  In1  1  0.50000000  1.00000000  0.50000000  1
  In  In2  1  0.50000000  0.50000000  0.00000000  1
  Mn  Mn0  1  0.00000000  0.00000000  0.00000000  1
