# generated using pymatgen
data_4398_KGe3
_symmetry_space_group_name_H-M   'Immm'
_cell_length_a   5.99234634
_cell_length_b   5.99234634
_cell_length_c   5.99234634
_cell_angle_alpha   143.49732071
_cell_angle_beta   117.92713466
_cell_angle_gamma   74.20612709
_chemical_formula_structural   KGe3
_chemical_formula_sum   'Ge3 K1'
_cell_volume   110.84356929
loop_
 _symmetry_equiv_pos_site_id
 _symmetry_equiv_pos_as_xyz
  1  'x, y, z'
loop_
 _atom_type_symbol
  Ge
  K
loop_
 _atom_site_type_symbol
 _atom_site_label
 _atom_site_symmetry_multiplicity
 _atom_site_fract_x
 _atom_site_fract_y
 _atom_site_fract_z
 _atom_site_occupancy
  Ge  Ge0  1  0.92915393  0.92915393  1.00000000  1
  Ge  Ge1  1  0.75000000  0.25000000  0.50000000  1
  Ge  Ge2  1  0.57084607  0.57084607  1.00000000  1
  K  K0  1  0.25000000  0.75000000  0.50000000  1
