# generated using pymatgen
data_4400_PdTa
_symmetry_space_group_name_H-M   'P4/mmm'
_cell_length_a   3.99091250
_cell_length_b   3.99091250
_cell_length_c   4.12885083
_cell_angle_alpha   90.00000000
_cell_angle_beta   90.00000000
_cell_angle_gamma   90.00000000
_chemical_formula_structural   PdTa
_chemical_formula_sum   'Pd2 Ta2'
_cell_volume   65.76178680
loop_
 _symmetry_equiv_pos_site_id
 _symmetry_equiv_pos_as_xyz
  1  'x, y, z'
loop_
 _atom_type_symbol
  Pd
  Ta
loop_
 _atom_site_type_symbol
 _atom_site_label
 _atom_site_symmetry_multiplicity
 _atom_site_fract_x
 _atom_site_fract_y
 _atom_site_fract_z
 _atom_site_occupancy
  Pd  Pd0  1  0.25000000  0.75000000  0.00000000  1
  Pd  Pd1  1  0.75000000  0.25000000  0.00000000  1
  Ta  Ta0  1  0.25000000  0.25000000  0.49840871  1
  Ta  Ta1  1  0.75000000  0.75000000  0.50159129  1
