# generated using pymatgen
data_4401_Ag12P17
_symmetry_space_group_name_H-M   'I-43m'
_cell_length_a   8.95322731
_cell_length_b   8.95322731
_cell_length_c   8.95322731
_cell_angle_alpha   109.47122063
_cell_angle_beta   109.47122063
_cell_angle_gamma   109.47122063
_chemical_formula_structural   Ag12P17
_chemical_formula_sum   'Ag12 P17'
_cell_volume   552.48048489
loop_
 _symmetry_equiv_pos_site_id
 _symmetry_equiv_pos_as_xyz
  1  'x, y, z'
loop_
 _atom_type_symbol
  Ag
  P
loop_
 _atom_site_type_symbol
 _atom_site_label
 _atom_site_symmetry_multiplicity
 _atom_site_fract_x
 _atom_site_fract_y
 _atom_site_fract_z
 _atom_site_occupancy
  Ag  Ag0  1  0.21376567  0.71665161  0.21376567  1
  Ag  Ag1  1  0.49711406  0.28334839  0.49711406  1
  Ag  Ag2  1  0.78623433  0.00000000  0.50288594  1
  Ag  Ag3  1  0.50288594  0.00000000  0.78623433  1
  Ag  Ag4  1  0.78623433  0.50288594  0.00000000  1
  Ag  Ag5  1  0.50288594  0.78623433  0.00000000  1
  Ag  Ag6  1  0.49711406  0.49711406  0.28334839  1
  Ag  Ag7  1  0.21376567  0.21376567  0.71665161  1
  Ag  Ag8  1  0.00000000  0.50288594  0.78623433  1
  Ag  Ag9  1  0.00000000  0.78623433  0.50288594  1
  Ag  Ag10  1  0.71665161  0.21376567  0.21376567  1
  Ag  Ag11  1  0.28334839  0.49711406  0.49711406  1
  P  P0  1  0.76801659  0.20847615  0.76801659  1
  P  P1  1  0.55954044  0.79152385  0.55954044  1
  P  P2  1  0.23198341  0.00000000  0.44045956  1
  P  P3  1  0.44045956  0.00000000  0.23198341  1
  P  P4  1  0.23198341  0.44045956  0.00000000  1
  P  P5  1  0.44045956  0.23198341  0.00000000  1
  P  P6  1  0.55954044  0.55954044  0.79152385  1
  P  P7  1  0.76801659  0.76801659  0.20847615  1
  P  P8  1  0.00000000  0.44045956  0.23198341  1
  P  P9  1  0.00000000  0.23198341  0.44045956  1
  P  P10  1  0.20847615  0.76801659  0.76801659  1
  P  P11  1  0.79152385  0.55954044  0.55954044  1
  P  P12  1  1.00000000  0.26039034  0.00000000  1
  P  P13  1  0.73960966  0.73960966  0.73960966  1
  P  P14  1  1.00000000  0.00000000  0.26039034  1
  P  P15  1  0.26039034  0.00000000  0.00000000  1
  P  P16  1  0.00000000  0.00000000  0.00000000  1
