# generated using pymatgen
data_4406_Al3Ca
_symmetry_space_group_name_H-M   'Pm -3 m'
_cell_length_a   4.31005323
_cell_length_b   4.31005323
_cell_length_c   4.31005323
_cell_angle_alpha   90.00000000
_cell_angle_beta   90.00000000
_cell_angle_gamma   90.00000000
_chemical_formula_structural   Al3Ca
_chemical_formula_sum   'Al3 Ca1'
_cell_volume   80.06595745
loop_
 _symmetry_equiv_pos_site_id
 _symmetry_equiv_pos_as_xyz
  1  'x, y, z'
loop_
 _atom_type_symbol
  Al
  Ca
loop_
 _atom_site_type_symbol
 _atom_site_label
 _atom_site_symmetry_multiplicity
 _atom_site_fract_x
 _atom_site_fract_y
 _atom_site_fract_z
 _atom_site_occupancy
  Al  Al0  1  0.00000000  0.50000000  0.50000000  1
  Al  Al1  1  0.50000000  0.00000000  0.50000000  1
  Al  Al2  1  0.50000000  0.50000000  0.00000000  1
  Ca  Ca0  1  0.00000000  0.00000000  0.00000000  1
