# generated using pymatgen
data_4407_Al17As12
_symmetry_space_group_name_H-M   'I-43m'
_cell_length_a   9.09792506
_cell_length_b   9.09792506
_cell_length_c   9.09792506
_cell_angle_alpha   109.47122063
_cell_angle_beta   109.47122063
_cell_angle_gamma   109.47122063
_chemical_formula_structural   Al17As12
_chemical_formula_sum   'Al17 As12'
_cell_volume   579.70250129
loop_
 _symmetry_equiv_pos_site_id
 _symmetry_equiv_pos_as_xyz
  1  'x, y, z'
loop_
 _atom_type_symbol
  Al
  As
loop_
 _atom_site_type_symbol
 _atom_site_label
 _atom_site_symmetry_multiplicity
 _atom_site_fract_x
 _atom_site_fract_y
 _atom_site_fract_z
 _atom_site_occupancy
  Al  Al0  1  0.71660149  0.25304186  0.71660149  1
  Al  Al1  1  0.46355963  0.74695814  0.46355963  1
  Al  Al2  1  0.28339851  0.00000000  0.53644037  1
  Al  Al3  1  0.53644037  0.00000000  0.28339851  1
  Al  Al4  1  0.28339851  0.53644037  0.00000000  1
  Al  Al5  1  0.53644037  0.28339851  0.00000000  1
  Al  Al6  1  0.46355963  0.46355963  0.74695814  1
  Al  Al7  1  0.71660149  0.71660149  0.25304186  1
  Al  Al8  1  0.00000000  0.53644037  0.28339851  1
  Al  Al9  1  1.00000000  0.28339851  0.53644037  1
  Al  Al10  1  0.25304186  0.71660149  0.71660149  1
  Al  Al11  1  0.74695814  0.46355963  0.46355963  1
  Al  Al12  1  1.00000000  0.28682417  0.00000000  1
  Al  Al13  1  0.71317583  0.71317583  0.71317583  1
  Al  Al14  1  1.00000000  0.00000000  0.28682417  1
  Al  Al15  1  0.28682417  0.00000000  0.00000000  1
  Al  Al16  1  0.00000000  0.00000000  0.00000000  1
  As  As0  1  0.22858637  0.76050292  0.22858637  1
  As  As1  1  0.46808345  0.23949708  0.46808345  1
  As  As2  1  0.77141363  0.00000000  0.53191655  1
  As  As3  1  0.53191655  0.00000000  0.77141363  1
  As  As4  1  0.77141363  0.53191655  0.00000000  1
  As  As5  1  0.53191655  0.77141363  0.00000000  1
  As  As6  1  0.46808345  0.46808345  0.23949708  1
  As  As7  1  0.22858637  0.22858637  0.76050292  1
  As  As8  1  0.00000000  0.53191655  0.77141363  1
  As  As9  1  0.00000000  0.77141363  0.53191655  1
  As  As10  1  0.76050292  0.22858637  0.22858637  1
  As  As11  1  0.23949708  0.46808345  0.46808345  1
