# generated using pymatgen
data_4408_Cu17In12
_symmetry_space_group_name_H-M   'I-43m'
_cell_length_a   8.65742023
_cell_length_b   8.65742023
_cell_length_c   8.65742023
_cell_angle_alpha   109.47122063
_cell_angle_beta   109.47122063
_cell_angle_gamma   109.47122063
_chemical_formula_structural   Cu17In12
_chemical_formula_sum   'Cu17 In12'
_cell_volume   499.50933059
loop_
 _symmetry_equiv_pos_site_id
 _symmetry_equiv_pos_as_xyz
  1  'x, y, z'
loop_
 _atom_type_symbol
  Cu
  In
loop_
 _atom_site_type_symbol
 _atom_site_label
 _atom_site_symmetry_multiplicity
 _atom_site_fract_x
 _atom_site_fract_y
 _atom_site_fract_z
 _atom_site_occupancy
  Cu  Cu0  1  0.30147079  0.73116654  0.30147079  1
  Cu  Cu1  1  0.57030425  0.26883346  0.57030425  1
  Cu  Cu2  1  0.42969575  0.00000000  0.69852921  1
  Cu  Cu3  1  0.69852921  0.00000000  0.42969575  1
  Cu  Cu4  1  1.00000000  0.42969575  0.69852921  1
  Cu  Cu5  1  0.00000000  0.69852921  0.42969575  1
  Cu  Cu6  1  0.26883346  0.57030425  0.57030425  1
  Cu  Cu7  1  0.73116654  0.30147079  0.30147079  1
  Cu  Cu8  1  0.69852921  0.42969575  0.00000000  1
  Cu  Cu9  1  0.42969575  0.69852921  0.00000000  1
  Cu  Cu10  1  0.30147079  0.30147079  0.73116654  1
  Cu  Cu11  1  0.57030425  0.57030425  0.26883346  1
  Cu  Cu12  1  1.00000000  0.67206931  0.00000000  1
  Cu  Cu13  1  0.32793069  0.32793069  0.32793069  1
  Cu  Cu14  1  0.67206931  0.00000000  0.00000000  1
  Cu  Cu15  1  1.00000000  0.00000000  0.67206931  1
  Cu  Cu16  1  0.00000000  0.00000000  0.00000000  1
  In  In0  1  0.79530356  0.20255533  0.79530356  1
  In  In1  1  0.59274824  0.79744467  0.59274824  1
  In  In2  1  0.40725176  0.00000000  0.20469644  1
  In  In3  1  0.20469644  0.00000000  0.40725176  1
  In  In4  1  0.00000000  0.40725176  0.20469644  1
  In  In5  1  0.00000000  0.20469644  0.40725176  1
  In  In6  1  0.79744467  0.59274824  0.59274824  1
  In  In7  1  0.20255533  0.79530356  0.79530356  1
  In  In8  1  0.20469644  0.40725176  0.00000000  1
  In  In9  1  0.40725176  0.20469644  0.00000000  1
  In  In10  1  0.79530356  0.79530356  0.20255533  1
  In  In11  1  0.59274824  0.59274824  0.79744467  1
