# generated using pymatgen
data_4409_Au2Br
_symmetry_space_group_name_H-M   'I4/mmm'
_cell_length_a   5.91326127
_cell_length_b   5.91326127
_cell_length_c   5.91326127
_cell_angle_alpha   145.92442715
_cell_angle_beta   145.92442715
_cell_angle_gamma   48.95902749
_chemical_formula_structural   Au2Br
_chemical_formula_sum   'Au2 Br1'
_cell_volume   64.62148890
loop_
 _symmetry_equiv_pos_site_id
 _symmetry_equiv_pos_as_xyz
  1  'x, y, z'
loop_
 _atom_type_symbol
  Au
  Br
loop_
 _atom_site_type_symbol
 _atom_site_label
 _atom_site_symmetry_multiplicity
 _atom_site_fract_x
 _atom_site_fract_y
 _atom_site_fract_z
 _atom_site_occupancy
  Au  Au0  1  0.01847197  0.01847197  0.00000000  1
  Au  Au1  1  0.64819469  0.64819469  0.00000000  1
  Br  Br0  1  0.33333333  0.33333333  0.00000000  1
