# generated using pymatgen
data_4414_MoW2
_symmetry_space_group_name_H-M   'I4/mmm'
_cell_length_a   5.26653788
_cell_length_b   5.26653788
_cell_length_c   5.26653788
_cell_angle_alpha   144.90513911
_cell_angle_beta   144.78926097
_cell_angle_gamma   50.56235154
_chemical_formula_structural   MoW2
_chemical_formula_sum   'Mo1 W2'
_cell_volume   48.17906417
loop_
 _symmetry_equiv_pos_site_id
 _symmetry_equiv_pos_as_xyz
  1  'x, y, z'
loop_
 _atom_type_symbol
  Mo
  W
loop_
 _atom_site_type_symbol
 _atom_site_label
 _atom_site_symmetry_multiplicity
 _atom_site_fract_x
 _atom_site_fract_y
 _atom_site_fract_z
 _atom_site_occupancy
  Mo  Mo0  1  0.00000000  0.00000000  0.00000000  1
  W  W0  1  0.66657647  0.66657647  1.00000000  1
  W  W1  1  0.33342353  0.33342353  1.00000000  1
