# generated using pymatgen
data_4418_Na4Sr
_symmetry_space_group_name_H-M   'Im -3 m'
_cell_length_a   7.27519129
_cell_length_b   7.27519129
_cell_length_c   7.27519129
_cell_angle_alpha   109.47122063
_cell_angle_beta   109.47122063
_cell_angle_gamma   109.47122063
_chemical_formula_structural   Na4Sr
_chemical_formula_sum   'Na4 Sr1'
_cell_volume   296.42263264
loop_
 _symmetry_equiv_pos_site_id
 _symmetry_equiv_pos_as_xyz
  1  'x, y, z'
loop_
 _atom_type_symbol
  Na
  Sr
loop_
 _atom_site_type_symbol
 _atom_site_label
 _atom_site_symmetry_multiplicity
 _atom_site_fract_x
 _atom_site_fract_y
 _atom_site_fract_z
 _atom_site_occupancy
  Na  Na0  1  0.00000000  0.50000000  0.00000000  1
  Na  Na1  1  0.50000000  0.50000000  0.50000000  1
  Na  Na2  1  0.00000000  0.00000000  0.50000000  1
  Na  Na3  1  0.50000000  0.00000000  0.00000000  1
  Sr  Sr0  1  0.00000000  0.00000000  0.00000000  1
