# generated using pymatgen
data_4430_MoYb
_symmetry_space_group_name_H-M   'P4/mmm'
_cell_length_a   2.78327058
_cell_length_b   3.93613900
_cell_length_c   5.03957240
_cell_angle_alpha   90.00000000
_cell_angle_beta   90.00000000
_cell_angle_gamma   45.00000000
_chemical_formula_structural   MoYb
_chemical_formula_sum   'Mo1 Yb1'
_cell_volume   39.03952693
loop_
 _symmetry_equiv_pos_site_id
 _symmetry_equiv_pos_as_xyz
  1  'x, y, z'
loop_
 _atom_type_symbol
  Mo
  Yb
loop_
 _atom_site_type_symbol
 _atom_site_label
 _atom_site_symmetry_multiplicity
 _atom_site_fract_x
 _atom_site_fract_y
 _atom_site_fract_z
 _atom_site_occupancy
  Mo  Mo0  1  0.00000000  0.00000000  0.00000000  1
  Yb  Yb0  1  0.00000000  0.50000000  0.50000000  1
