# generated using pymatgen
data_4431_Au2V2
_symmetry_space_group_name_H-M   'P4/nmm'
_cell_length_a   2.74476222
_cell_length_b   2.74476222
_cell_length_c   8.42563847
_cell_angle_alpha   90.00000000
_cell_angle_beta   90.00000000
_cell_angle_gamma   90.00000000
_chemical_formula_structural   Au2V2
_chemical_formula_sum   'Au2 V2'
_cell_volume   63.47639816
loop_
 _symmetry_equiv_pos_site_id
 _symmetry_equiv_pos_as_xyz
  1  'x, y, z'
loop_
 _atom_type_symbol
  Au
  V
loop_
 _atom_site_type_symbol
 _atom_site_label
 _atom_site_symmetry_multiplicity
 _atom_site_fract_x
 _atom_site_fract_y
 _atom_site_fract_z
 _atom_site_occupancy
  Au  Au0  1  0.00000000  0.00000000  0.01877407  1
  Au  Au1  1  0.50000000  0.50000000  0.73122593  1
  V  V0  1  0.00000000  0.00000000  0.49112479  1
  V  V1  1  0.50000000  0.50000000  0.25887521  1
