# generated using pymatgen
data_4434_BaW5
_symmetry_space_group_name_H-M   'Amm2'
_cell_length_a   9.49985596
_cell_length_b   9.49985596
_cell_length_c   4.41985863
_cell_angle_alpha   90.00000000
_cell_angle_beta   90.00000000
_cell_angle_gamma   160.42628126
_chemical_formula_structural   BaW5
_chemical_formula_sum   'Ba1 W5'
_cell_volume   133.63259418
loop_
 _symmetry_equiv_pos_site_id
 _symmetry_equiv_pos_as_xyz
  1  'x, y, z'
loop_
 _atom_type_symbol
  Ba
  W
loop_
 _atom_site_type_symbol
 _atom_site_label
 _atom_site_symmetry_multiplicity
 _atom_site_fract_x
 _atom_site_fract_y
 _atom_site_fract_z
 _atom_site_occupancy
  Ba  Ba0  1  0.00617989  0.99382011  0.00000000  1
  W  W0  1  0.29928551  0.70071449  0.00000000  1
  W  W1  1  0.67895451  0.32104549  0.00000000  1
  W  W2  1  0.39117252  0.60882748  0.50000000  1
  W  W3  1  0.78834409  0.21165591  0.50000000  1
  W  W4  1  0.16939682  0.83060318  0.50000000  1
