# generated using pymatgen
data_4439_Mn12Sb12
_symmetry_space_group_name_H-M   'Pbcm'
_cell_length_a   5.90596743
_cell_length_b   7.43531848
_cell_length_c   10.88339471
_cell_angle_alpha   90.00000000
_cell_angle_beta   90.00000000
_cell_angle_gamma   90.00000000
_chemical_formula_structural   Mn12Sb12
_chemical_formula_sum   'Mn12 Sb12'
_cell_volume   477.91977771
loop_
 _symmetry_equiv_pos_site_id
 _symmetry_equiv_pos_as_xyz
  1  'x, y, z'
loop_
 _atom_type_symbol
  Mn
  Sb
loop_
 _atom_site_type_symbol
 _atom_site_label
 _atom_site_symmetry_multiplicity
 _atom_site_fract_x
 _atom_site_fract_y
 _atom_site_fract_z
 _atom_site_occupancy
  Mn  Mn0  1  0.25000000  0.08625961  0.14665657  1
  Mn  Mn1  1  0.75000000  0.91374039  0.85334343  1
  Mn  Mn2  1  0.25000000  0.58625961  0.85334343  1
  Mn  Mn3  1  0.75000000  0.41374039  0.14665657  1
  Mn  Mn4  1  0.25000000  0.51483322  0.48680515  1
  Mn  Mn5  1  0.75000000  0.48516678  0.51319485  1
  Mn  Mn6  1  0.25000000  0.01483322  0.51319485  1
  Mn  Mn7  1  0.75000000  0.98516678  0.48680515  1
  Mn  Mn8  1  0.00000000  0.75000000  0.09094524  1
  Mn  Mn9  1  0.50000000  0.25000000  0.90905476  1
  Mn  Mn10  1  0.00000000  0.25000000  0.90905476  1
  Mn  Mn11  1  0.50000000  0.75000000  0.09094524  1
  Sb  Sb0  1  0.25000000  0.44067099  0.08586909  1
  Sb  Sb1  1  0.75000000  0.55932901  0.91413091  1
  Sb  Sb2  1  0.25000000  0.94067099  0.91413091  1
  Sb  Sb3  1  0.75000000  0.05932901  0.08586909  1
  Sb  Sb4  1  0.25000000  0.80043400  0.30323807  1
  Sb  Sb5  1  0.75000000  0.19956600  0.69676193  1
  Sb  Sb6  1  0.25000000  0.30043400  0.69676193  1
  Sb  Sb7  1  0.75000000  0.69956600  0.30323807  1
  Sb  Sb8  1  0.00000000  0.75000000  0.63737667  1
  Sb  Sb9  1  0.50000000  0.25000000  0.36262333  1
  Sb  Sb10  1  0.00000000  0.25000000  0.36262333  1
  Sb  Sb11  1  0.50000000  0.75000000  0.63737667  1
