# generated using pymatgen
data_443_Cr3Nb
_symmetry_space_group_name_H-M   'Immm'
_cell_length_a   4.23841980
_cell_length_b   4.91634360
_cell_length_c   2.97748109
_cell_angle_alpha   72.37326766
_cell_angle_beta   90.00000000
_cell_angle_gamma   115.53447244
_chemical_formula_structural   Cr3Nb
_chemical_formula_sum   'Cr3 Nb1'
_cell_volume   52.73668766
loop_
 _symmetry_equiv_pos_site_id
 _symmetry_equiv_pos_as_xyz
  1  'x, y, z'
loop_
 _atom_type_symbol
  Cr
  Nb
loop_
 _atom_site_type_symbol
 _atom_site_label
 _atom_site_symmetry_multiplicity
 _atom_site_fract_x
 _atom_site_fract_y
 _atom_site_fract_z
 _atom_site_occupancy
  Cr  Cr0  1  0.92326366  0.01321396  0.99339302  1
  Cr  Cr1  1  0.16676986  0.50000000  0.25000000  1
  Cr  Cr2  1  0.41004970  0.98678604  0.50660698  1
  Nb  Nb0  1  0.66658345  0.50000000  0.75000000  1
