# generated using pymatgen
data_4441_Rh5As
_symmetry_space_group_name_H-M   'F-43m'
_cell_length_a   5.12227376
_cell_length_b   5.12227376
_cell_length_c   5.12227376
_cell_angle_alpha   60.00000000
_cell_angle_beta   60.00000000
_cell_angle_gamma   60.00000000
_chemical_formula_structural   Rh5As
_chemical_formula_sum   'As1 Rh5'
_cell_volume   95.03276356
loop_
 _symmetry_equiv_pos_site_id
 _symmetry_equiv_pos_as_xyz
  1  'x, y, z'
loop_
 _atom_type_symbol
  As
  Rh
loop_
 _atom_site_type_symbol
 _atom_site_label
 _atom_site_symmetry_multiplicity
 _atom_site_fract_x
 _atom_site_fract_y
 _atom_site_fract_z
 _atom_site_occupancy
  As  As0  1  0.00000000  0.00000000  0.00000000  1
  Rh  Rh0  1  0.75000000  0.75000000  0.75000000  1
  Rh  Rh1  1  0.37534889  0.37534889  0.87395333  1
  Rh  Rh2  1  0.37534889  0.37534889  0.37534889  1
  Rh  Rh3  1  0.87395333  0.37534889  0.37534889  1
  Rh  Rh4  1  0.37534889  0.87395333  0.37534889  1
