# generated using pymatgen
data_4446_Sn8I32
_symmetry_space_group_name_H-M   'Pa -3'
_cell_length_a   12.59987749
_cell_length_b   12.59987749
_cell_length_c   12.59987749
_cell_angle_alpha   90.00000000
_cell_angle_beta   90.00000000
_cell_angle_gamma   90.00000000
_chemical_formula_structural   Sn8I32
_chemical_formula_sum   'I32 Sn8'
_cell_volume   2000.31765150
loop_
 _symmetry_equiv_pos_site_id
 _symmetry_equiv_pos_as_xyz
  1  'x, y, z'
loop_
 _atom_type_symbol
  I
  Sn
loop_
 _atom_site_type_symbol
 _atom_site_label
 _atom_site_symmetry_multiplicity
 _atom_site_fract_x
 _atom_site_fract_y
 _atom_site_fract_z
 _atom_site_occupancy
  I  I0  1  0.25502194  0.01152758  0.00045428  1
  I  I1  1  0.24497806  0.51152758  0.00045428  1
  I  I2  1  0.00045428  0.25502194  0.01152758  1
  I  I3  1  0.49954572  0.75502194  0.01152758  1
  I  I4  1  0.51152758  0.00045428  0.24497806  1
  I  I5  1  0.75346041  0.25346041  0.24653959  1
  I  I6  1  0.98847242  0.50045428  0.24497806  1
  I  I7  1  0.74653959  0.75346041  0.24653959  1
  I  I8  1  0.01152758  0.00045428  0.25502194  1
  I  I9  1  0.25346041  0.25346041  0.25346041  1
  I  I10  1  0.48847242  0.50045428  0.25502194  1
  I  I11  1  0.24653959  0.75346041  0.25346041  1
  I  I12  1  0.50045428  0.25502194  0.48847242  1
  I  I13  1  0.99954572  0.75502194  0.48847242  1
  I  I14  1  0.75502194  0.01152758  0.49954572  1
  I  I15  1  0.74497806  0.51152758  0.49954572  1
  I  I16  1  0.25502194  0.48847242  0.50045428  1
  I  I17  1  0.24497806  0.98847242  0.50045428  1
  I  I18  1  0.00045428  0.24497806  0.51152758  1
  I  I19  1  0.49954572  0.74497806  0.51152758  1
  I  I20  1  0.75346041  0.24653959  0.74653959  1
  I  I21  1  0.51152758  0.49954572  0.74497806  1
  I  I22  1  0.74653959  0.74653959  0.74653959  1
  I  I23  1  0.98847242  0.99954572  0.74497806  1
  I  I24  1  0.25346041  0.24653959  0.75346041  1
  I  I25  1  0.01152758  0.49954572  0.75502194  1
  I  I26  1  0.24653959  0.74653959  0.75346041  1
  I  I27  1  0.48847242  0.99954572  0.75502194  1
  I  I28  1  0.50045428  0.24497806  0.98847242  1
  I  I29  1  0.99954572  0.74497806  0.98847242  1
  I  I30  1  0.75502194  0.48847242  0.99954572  1
  I  I31  1  0.74497806  0.98847242  0.99954572  1
  Sn  Sn0  1  0.12949425  0.12949425  0.12949425  1
  Sn  Sn1  1  0.37050575  0.62949425  0.12949425  1
  Sn  Sn2  1  0.62949425  0.12949425  0.37050575  1
  Sn  Sn3  1  0.87050575  0.62949425  0.37050575  1
  Sn  Sn4  1  0.12949425  0.37050575  0.62949425  1
  Sn  Sn5  1  0.37050575  0.87050575  0.62949425  1
  Sn  Sn6  1  0.62949425  0.37050575  0.87050575  1
  Sn  Sn7  1  0.87050575  0.87050575  0.87050575  1
