# generated using pymatgen
data_4452_K2Pd4
_symmetry_space_group_name_H-M   'Pnnm'
_cell_length_a   3.74628832
_cell_length_b   7.34306256
_cell_length_c   5.29431480
_cell_angle_alpha   90.00000000
_cell_angle_beta   90.00000000
_cell_angle_gamma   90.00000000
_chemical_formula_structural   K2Pd4
_chemical_formula_sum   'K2 Pd4'
_cell_volume   145.64252089
loop_
 _symmetry_equiv_pos_site_id
 _symmetry_equiv_pos_as_xyz
  1  'x, y, z'
loop_
 _atom_type_symbol
  K
  Pd
loop_
 _atom_site_type_symbol
 _atom_site_label
 _atom_site_symmetry_multiplicity
 _atom_site_fract_x
 _atom_site_fract_y
 _atom_site_fract_z
 _atom_site_occupancy
  K  K0  1  0.00000000  0.00000000  0.00000000  1
  K  K1  1  0.50000000  0.50000000  0.50000000  1
  Pd  Pd0  1  0.18338931  0.38591327  0.00000000  1
  Pd  Pd1  1  0.31661069  0.88591327  0.50000000  1
  Pd  Pd2  1  0.68338931  0.11408673  0.50000000  1
  Pd  Pd3  1  0.81661069  0.61408673  0.00000000  1
