# generated using pymatgen
data_4454_MoSr
_symmetry_space_group_name_H-M   'P4/mmm'
_cell_length_a   2.92112622
_cell_length_b   4.13109632
_cell_length_c   5.39287416
_cell_angle_alpha   90.00000000
_cell_angle_beta   90.00000000
_cell_angle_gamma   45.00000000
_chemical_formula_structural   MoSr
_chemical_formula_sum   'Mo1 Sr1'
_cell_volume   46.01727873
loop_
 _symmetry_equiv_pos_site_id
 _symmetry_equiv_pos_as_xyz
  1  'x, y, z'
loop_
 _atom_type_symbol
  Mo
  Sr
loop_
 _atom_site_type_symbol
 _atom_site_label
 _atom_site_symmetry_multiplicity
 _atom_site_fract_x
 _atom_site_fract_y
 _atom_site_fract_z
 _atom_site_occupancy
  Mo  Mo0  1  0.00000000  0.00000000  0.00000000  1
  Sr  Sr0  1  0.99999996  0.49999900  0.50000072  1
