# generated using pymatgen
data_4457_Ca3V
_symmetry_space_group_name_H-M   'P4/mmm'
_cell_length_a   3.50867302
_cell_length_b   3.50867302
_cell_length_c   10.08751688
_cell_angle_alpha   90.00000000
_cell_angle_beta   90.00000000
_cell_angle_gamma   90.00000000
_chemical_formula_structural   Ca3V
_chemical_formula_sum   'Ca3 V1'
_cell_volume   124.18526523
loop_
 _symmetry_equiv_pos_site_id
 _symmetry_equiv_pos_as_xyz
  1  'x, y, z'
loop_
 _atom_type_symbol
  Ca
  V
loop_
 _atom_site_type_symbol
 _atom_site_label
 _atom_site_symmetry_multiplicity
 _atom_site_fract_x
 _atom_site_fract_y
 _atom_site_fract_z
 _atom_site_occupancy
  Ca  Ca0  1  0.50000000  0.50000000  0.80161279  1
  Ca  Ca1  1  0.00000000  0.00000000  0.50000000  1
  Ca  Ca2  1  0.50000000  0.50000000  0.19838721  1
  V  V0  1  0.00000000  0.00000000  0.00000000  1
