# generated using pymatgen
data_4460_SbP
_symmetry_space_group_name_H-M   'Fm -3 m'
_cell_length_a   3.98064907
_cell_length_b   3.98064907
_cell_length_c   5.63180642
_cell_angle_alpha   90.00000000
_cell_angle_beta   90.00000000
_cell_angle_gamma   90.00000000
_chemical_formula_structural   SbP
_chemical_formula_sum   'P2 Sb2'
_cell_volume   89.23916606
loop_
 _symmetry_equiv_pos_site_id
 _symmetry_equiv_pos_as_xyz
  1  'x, y, z'
loop_
 _atom_type_symbol
  P
  Sb
loop_
 _atom_site_type_symbol
 _atom_site_label
 _atom_site_symmetry_multiplicity
 _atom_site_fract_x
 _atom_site_fract_y
 _atom_site_fract_z
 _atom_site_occupancy
  P  P0  1  0.00000000  0.00000000  0.12543464  1
  P  P1  1  0.50000000  0.50000000  0.62456536  1
  Sb  Sb0  1  0.00000000  0.00000000  0.62592338  1
  Sb  Sb1  1  0.50000000  0.50000000  0.12407662  1
