# generated using pymatgen
data_4461_Mo8Ni4
_symmetry_space_group_name_H-M   'Pa -3'
_cell_length_a   5.77702749
_cell_length_b   5.77702749
_cell_length_c   5.77702749
_cell_angle_alpha   90.00000000
_cell_angle_beta   90.00000000
_cell_angle_gamma   90.00000000
_chemical_formula_structural   Mo8Ni4
_chemical_formula_sum   'Mo8 Ni4'
_cell_volume   192.80278478
loop_
 _symmetry_equiv_pos_site_id
 _symmetry_equiv_pos_as_xyz
  1  'x, y, z'
loop_
 _atom_type_symbol
  Mo
  Ni
loop_
 _atom_site_type_symbol
 _atom_site_label
 _atom_site_symmetry_multiplicity
 _atom_site_fract_x
 _atom_site_fract_y
 _atom_site_fract_z
 _atom_site_occupancy
  Mo  Mo0  1  0.12072839  0.62072839  0.87927161  1
  Mo  Mo1  1  0.12072839  0.87927161  0.37927161  1
  Mo  Mo2  1  0.37927161  0.12072839  0.87927161  1
  Mo  Mo3  1  0.37927161  0.37927161  0.37927161  1
  Mo  Mo4  1  0.62072839  0.62072839  0.62072839  1
  Mo  Mo5  1  0.62072839  0.87927161  0.12072839  1
  Mo  Mo6  1  0.87927161  0.12072839  0.62072839  1
  Mo  Mo7  1  0.87927161  0.37927161  0.12072839  1
  Ni  Ni0  1  0.00000000  0.00000000  0.00000000  1
  Ni  Ni1  1  0.00000000  0.50000000  0.50000000  1
  Ni  Ni2  1  0.50000000  0.00000000  0.50000000  1
  Ni  Ni3  1  0.50000000  0.50000000  0.00000000  1
