# generated using pymatgen
data_4463_Mo6W2
_symmetry_space_group_name_H-M   'Cmcm'
_cell_length_a   5.52924792
_cell_length_b   5.53143307
_cell_length_c   4.91050646
_cell_angle_alpha   90.00000000
_cell_angle_beta   90.00000000
_cell_angle_gamma   120.01307395
_chemical_formula_structural   Mo6W2
_chemical_formula_sum   'Mo6 W2'
_cell_volume   130.04792115
loop_
 _symmetry_equiv_pos_site_id
 _symmetry_equiv_pos_as_xyz
  1  'x, y, z'
loop_
 _atom_type_symbol
  Mo
  W
loop_
 _atom_site_type_symbol
 _atom_site_label
 _atom_site_symmetry_multiplicity
 _atom_site_fract_x
 _atom_site_fract_y
 _atom_site_fract_z
 _atom_site_occupancy
  Mo  Mo0  1  0.99987218  0.99993609  0.00000000  1
  Mo  Mo1  1  0.49973195  0.49974157  0.00000000  1
  Mo  Mo2  1  0.49973195  0.99999038  0.00000000  1
  Mo  Mo3  1  0.33346116  0.16673058  0.50000000  1
  Mo  Mo4  1  0.83360138  0.66692510  0.50000000  1
  Mo  Mo5  1  0.83360138  0.16667629  0.50000000  1
  W  W0  1  0.00071788  0.50035894  0.00000000  1
  W  W1  1  0.33261545  0.66630772  0.50000000  1
