# generated using pymatgen
data_4465_Pd2P2
_symmetry_space_group_name_H-M   'Cmme'
_cell_length_a   2.96898052
_cell_length_b   2.96898052
_cell_length_c   7.63273552
_cell_angle_alpha   90.00000000
_cell_angle_beta   90.00000000
_cell_angle_gamma   92.93813462
_chemical_formula_structural   Pd2P2
_chemical_formula_sum   'P2 Pd2'
_cell_volume   67.19293914
loop_
 _symmetry_equiv_pos_site_id
 _symmetry_equiv_pos_as_xyz
  1  'x, y, z'
loop_
 _atom_type_symbol
  P
  Pd
loop_
 _atom_site_type_symbol
 _atom_site_label
 _atom_site_symmetry_multiplicity
 _atom_site_fract_x
 _atom_site_fract_y
 _atom_site_fract_z
 _atom_site_occupancy
  P  P0  1  0.00000000  0.00000000  0.06865987  1
  P  P1  1  0.50000000  0.50000000  0.68134013  1
  Pd  Pd0  1  0.00000000  0.00000000  0.51770335  1
  Pd  Pd1  1  0.50000000  0.50000000  0.23229665  1
