# generated using pymatgen
data_4474_Ni4Ta16
_symmetry_space_group_name_H-M   'I-43m'
_cell_length_a   7.82084397
_cell_length_b   7.82084397
_cell_length_c   7.82084397
_cell_angle_alpha   109.47122063
_cell_angle_beta   109.47122063
_cell_angle_gamma   109.47122063
_chemical_formula_structural   Ni4Ta16
_chemical_formula_sum   'Ni4 Ta16'
_cell_volume   368.24679319
loop_
 _symmetry_equiv_pos_site_id
 _symmetry_equiv_pos_as_xyz
  1  'x, y, z'
loop_
 _atom_type_symbol
  Ni
  Ta
loop_
 _atom_site_type_symbol
 _atom_site_label
 _atom_site_symmetry_multiplicity
 _atom_site_fract_x
 _atom_site_fract_y
 _atom_site_fract_z
 _atom_site_occupancy
  Ni  Ni0  1  0.70567249  0.00000000  0.00000000  1
  Ni  Ni1  1  0.29432751  0.29432751  0.29432751  1
  Ni  Ni2  1  1.00000000  0.00000000  0.70567249  1
  Ni  Ni3  1  1.00000000  0.70567249  0.00000000  1
  Ta  Ta0  1  0.39116492  0.00000000  0.00000000  1
  Ta  Ta1  1  0.60883508  0.60883508  0.60883508  1
  Ta  Ta2  1  0.00000000  1.00000000  0.39116492  1
  Ta  Ta3  1  0.00000000  0.39116492  0.00000000  1
  Ta  Ta4  1  0.32405456  0.32405456  0.00000000  1
  Ta  Ta5  1  0.67594544  0.67594544  0.00000000  1
  Ta  Ta6  1  0.32405456  1.00000000  0.32405456  1
  Ta  Ta7  1  0.67594544  0.00000000  0.67594544  1
  Ta  Ta8  1  1.00000000  0.67594544  0.67594544  1
  Ta  Ta9  1  0.00000000  0.32405456  0.32405456  1
  Ta  Ta10  1  0.75002859  0.25002859  0.50000000  1
  Ta  Ta11  1  0.24997141  0.74997141  0.50000000  1
  Ta  Ta12  1  0.25002859  0.50000000  0.75002859  1
  Ta  Ta13  1  0.74997141  0.50000000  0.24997141  1
  Ta  Ta14  1  0.50000000  0.24997141  0.74997141  1
  Ta  Ta15  1  0.50000000  0.75002859  0.25002859  1
