# generated using pymatgen
data_4475_AlNi3
_symmetry_space_group_name_H-M   'Immm'
_cell_length_a   4.32565686
_cell_length_b   4.32565686
_cell_length_c   4.32565686
_cell_angle_alpha   131.61101077
_cell_angle_beta   130.05652063
_cell_angle_gamma   72.08456938
_chemical_formula_structural   AlNi3
_chemical_formula_sum   'Al1 Ni3'
_cell_volume   45.29380754
loop_
 _symmetry_equiv_pos_site_id
 _symmetry_equiv_pos_as_xyz
  1  'x, y, z'
loop_
 _atom_type_symbol
  Al
  Ni
loop_
 _atom_site_type_symbol
 _atom_site_label
 _atom_site_symmetry_multiplicity
 _atom_site_fract_x
 _atom_site_fract_y
 _atom_site_fract_z
 _atom_site_occupancy
  Al  Al0  1  0.00000000  0.00000000  0.00000000  1
  Ni  Ni0  1  0.75055639  0.25055639  0.50000000  1
  Ni  Ni1  1  0.50000000  0.50000000  1.00000000  1
  Ni  Ni2  1  0.24944361  0.74944361  0.50000000  1
