# generated using pymatgen
data_4477_Na2Pd
_symmetry_space_group_name_H-M   'Immm'
_cell_length_a   5.32726300
_cell_length_b   5.32726300
_cell_length_c   5.32726300
_cell_angle_alpha   147.39886062
_cell_angle_beta   129.31666764
_cell_angle_gamma   61.57241611
_chemical_formula_structural   Na2Pd
_chemical_formula_sum   'Na2 Pd1'
_cell_volume   62.41262734
loop_
 _symmetry_equiv_pos_site_id
 _symmetry_equiv_pos_as_xyz
  1  'x, y, z'
loop_
 _atom_type_symbol
  Na
  Pd
loop_
 _atom_site_type_symbol
 _atom_site_label
 _atom_site_symmetry_multiplicity
 _atom_site_fract_x
 _atom_site_fract_y
 _atom_site_fract_z
 _atom_site_occupancy
  Na  Na0  1  0.99083218  0.99083218  1.00000000  1
  Na  Na1  1  0.67583449  0.67583449  0.00000000  1
  Pd  Pd0  1  0.33333333  0.33333333  0.00000000  1
