# generated using pymatgen
data_4483_Ir2Mo
_symmetry_space_group_name_H-M   'Fmmm'
_cell_length_a   6.88847562
_cell_length_b   6.62919550
_cell_length_c   2.47619412
_cell_angle_alpha   85.41100357
_cell_angle_beta   73.59213954
_cell_angle_gamma   20.99685689
_chemical_formula_structural   Ir2Mo
_chemical_formula_sum   'Ir2 Mo1'
_cell_volume   32.84981507
loop_
 _symmetry_equiv_pos_site_id
 _symmetry_equiv_pos_as_xyz
  1  'x, y, z'
loop_
 _atom_type_symbol
  Ir
  Mo
loop_
 _atom_site_type_symbol
 _atom_site_label
 _atom_site_symmetry_multiplicity
 _atom_site_fract_x
 _atom_site_fract_y
 _atom_site_fract_z
 _atom_site_occupancy
  Ir  Ir0  1  0.83532427  0.83532427  0.16467573  1
  Ir  Ir1  1  0.16467573  0.16467573  0.83532427  1
  Mo  Mo0  1  0.50000000  0.50000000  0.50000000  1
