# generated using pymatgen
data_4491_Cu2Pb
_symmetry_space_group_name_H-M   'I4/mmm'
_cell_length_a   5.40806876
_cell_length_b   5.40806876
_cell_length_c   5.40806876
_cell_angle_alpha   144.59834471
_cell_angle_beta   143.97083196
_cell_angle_gamma   51.40372979
_chemical_formula_structural   Cu2Pb
_chemical_formula_sum   'Cu2 Pb1'
_cell_volume   53.60491655
loop_
 _symmetry_equiv_pos_site_id
 _symmetry_equiv_pos_as_xyz
  1  'x, y, z'
loop_
 _atom_type_symbol
  Cu
  Pb
loop_
 _atom_site_type_symbol
 _atom_site_label
 _atom_site_symmetry_multiplicity
 _atom_site_fract_x
 _atom_site_fract_y
 _atom_site_fract_z
 _atom_site_occupancy
  Cu  Cu0  1  0.70019835  0.70019835  0.00000000  1
  Cu  Cu1  1  0.29980165  0.29980165  0.00000000  1
  Pb  Pb0  1  0.00000000  0.00000000  0.00000000  1
