# generated using pymatgen
data_4492_Ge4P2
_symmetry_space_group_name_H-M   'C2/m'
_cell_length_a   5.77457423
_cell_length_b   5.77457423
_cell_length_c   7.83375582
_cell_angle_alpha   50.60357517
_cell_angle_beta   50.60357517
_cell_angle_gamma   36.01119777
_chemical_formula_structural   Ge4P2
_chemical_formula_sum   'Ge4 P2'
_cell_volume   114.37850738
loop_
 _symmetry_equiv_pos_site_id
 _symmetry_equiv_pos_as_xyz
  1  'x, y, z'
loop_
 _atom_type_symbol
  Ge
  P
loop_
 _atom_site_type_symbol
 _atom_site_label
 _atom_site_symmetry_multiplicity
 _atom_site_fract_x
 _atom_site_fract_y
 _atom_site_fract_z
 _atom_site_occupancy
  Ge  Ge0  1  0.95537546  0.95537546  0.03866139  1
  Ge  Ge1  1  0.67130070  0.67130070  0.66007748  1
  Ge  Ge2  1  0.38425485  0.38425485  0.72881140  1
  Ge  Ge3  1  0.10018009  0.10018009  0.35022750  1
  P  P0  1  0.31648360  0.31648360  0.36063754  1
  P  P1  1  0.73907196  0.73907196  0.02825135  1
