# generated using pymatgen
data_4494_CuGa4
_symmetry_space_group_name_H-M   'I4/m'
_cell_length_a   4.96431154
_cell_length_b   4.96431154
_cell_length_c   4.96431154
_cell_angle_alpha   99.53579722
_cell_angle_beta   99.53579722
_cell_angle_gamma   131.96468489
_chemical_formula_structural   CuGa4
_chemical_formula_sum   'Cu1 Ga4'
_cell_volume   83.09252650
loop_
 _symmetry_equiv_pos_site_id
 _symmetry_equiv_pos_as_xyz
  1  'x, y, z'
loop_
 _atom_type_symbol
  Cu
  Ga
loop_
 _atom_site_type_symbol
 _atom_site_label
 _atom_site_symmetry_multiplicity
 _atom_site_fract_x
 _atom_site_fract_y
 _atom_site_fract_z
 _atom_site_occupancy
  Cu  Cu0  1  0.00000000  0.00000000  0.00000000  1
  Ga  Ga0  1  0.79342441  0.39395797  0.18738237  1
  Ga  Ga1  1  0.39395797  0.20657559  0.60053356  1
  Ga  Ga2  1  0.20657559  0.60604203  0.81261763  1
  Ga  Ga3  1  0.60604203  0.79342441  0.39946644  1
