# generated using pymatgen
data_4497_Fe2Sb4
_symmetry_space_group_name_H-M   'I4_1/amd'
_cell_length_a   11.25115043
_cell_length_b   11.25115043
_cell_length_c   11.25115043
_cell_angle_alpha   163.43766201
_cell_angle_beta   163.43766201
_cell_angle_gamma   23.50571223
_chemical_formula_structural   Fe2Sb4
_chemical_formula_sum   'Fe2 Sb4'
_cell_volume   115.70734599
loop_
 _symmetry_equiv_pos_site_id
 _symmetry_equiv_pos_as_xyz
  1  'x, y, z'
loop_
 _atom_type_symbol
  Fe
  Sb
loop_
 _atom_site_type_symbol
 _atom_site_label
 _atom_site_symmetry_multiplicity
 _atom_site_fract_x
 _atom_site_fract_y
 _atom_site_fract_z
 _atom_site_occupancy
  Fe  Fe0  1  0.00000000  0.00000000  0.00000000  1
  Fe  Fe1  1  0.25000000  0.75000000  0.50000000  1
  Sb  Sb0  1  0.56633508  0.56633508  0.00000000  1
  Sb  Sb1  1  0.68366492  0.18366492  0.50000000  1
  Sb  Sb2  1  0.43366492  0.43366492  0.00000000  1
  Sb  Sb3  1  0.81633508  0.31633508  0.50000000  1
