# generated using pymatgen
data_4503_Pd5Sn
_symmetry_space_group_name_H-M   'P4/mmm'
_cell_length_a   3.36515755
_cell_length_b   3.36515755
_cell_length_c   8.64202287
_cell_angle_alpha   90.00000000
_cell_angle_beta   90.00000000
_cell_angle_gamma   90.00000000
_chemical_formula_structural   Pd5Sn
_chemical_formula_sum   'Pd5 Sn1'
_cell_volume   97.86473286
loop_
 _symmetry_equiv_pos_site_id
 _symmetry_equiv_pos_as_xyz
  1  'x, y, z'
loop_
 _atom_type_symbol
  Pd
  Sn
loop_
 _atom_site_type_symbol
 _atom_site_label
 _atom_site_symmetry_multiplicity
 _atom_site_fract_x
 _atom_site_fract_y
 _atom_site_fract_z
 _atom_site_occupancy
  Pd  Pd0  1  0.00000000  0.00000000  0.83467508  1
  Pd  Pd1  1  0.00000000  0.00000000  0.16532492  1
  Pd  Pd2  1  0.50000000  0.50000000  0.66224111  1
  Pd  Pd3  1  0.50000000  0.50000000  0.33775889  1
  Pd  Pd4  1  0.00000000  0.00000000  0.50000000  1
  Sn  Sn0  1  0.50000000  0.50000000  0.00000000  1
