# generated using pymatgen
data_4504_CaV
_symmetry_space_group_name_H-M   'P-6m2'
_cell_length_a   3.09871308
_cell_length_b   3.09838656
_cell_length_c   5.20932684
_cell_angle_alpha   90.00000000
_cell_angle_beta   90.00000000
_cell_angle_gamma   120.00349412
_chemical_formula_structural   CaV
_chemical_formula_sum   'Ca1 V1'
_cell_volume   43.31256584
loop_
 _symmetry_equiv_pos_site_id
 _symmetry_equiv_pos_as_xyz
  1  'x, y, z'
loop_
 _atom_type_symbol
  Ca
  V
loop_
 _atom_site_type_symbol
 _atom_site_label
 _atom_site_symmetry_multiplicity
 _atom_site_fract_x
 _atom_site_fract_y
 _atom_site_fract_z
 _atom_site_occupancy
  Ca  Ca0  1  0.66670456  0.33340591  0.74999922  1
  V  V0  1  0.33329786  0.66659573  0.25000037  1
