# generated using pymatgen
data_4515_Ni24Ta5
_symmetry_space_group_name_H-M   'I-43m'
_cell_length_a   7.65780649
_cell_length_b   7.65780649
_cell_length_c   7.65780649
_cell_angle_alpha   109.47122063
_cell_angle_beta   109.47122063
_cell_angle_gamma   109.47122063
_chemical_formula_structural   Ni24Ta5
_chemical_formula_sum   'Ni24 Ta5'
_cell_volume   345.69354704
loop_
 _symmetry_equiv_pos_site_id
 _symmetry_equiv_pos_as_xyz
  1  'x, y, z'
loop_
 _atom_type_symbol
  Ni
  Ta
loop_
 _atom_site_type_symbol
 _atom_site_label
 _atom_site_symmetry_multiplicity
 _atom_site_fract_x
 _atom_site_fract_y
 _atom_site_fract_z
 _atom_site_occupancy
  Ni  Ni0  1  1.00000000  0.81103900  0.62796755  1
  Ni  Ni1  1  1.00000000  0.62796755  0.81103900  1
  Ni  Ni2  1  0.18307145  0.37203245  0.37203245  1
  Ni  Ni3  1  0.81692855  0.18896100  0.18896100  1
  Ni  Ni4  1  0.81103900  0.00000000  0.62796755  1
  Ni  Ni5  1  0.62796755  0.00000000  0.81103900  1
  Ni  Ni6  1  0.18896100  0.81692855  0.18896100  1
  Ni  Ni7  1  0.37203245  0.18307145  0.37203245  1
  Ni  Ni8  1  0.18896100  0.18896100  0.81692855  1
  Ni  Ni9  1  0.37203245  0.37203245  0.18307145  1
  Ni  Ni10  1  0.62796755  0.81103900  0.00000000  1
  Ni  Ni11  1  0.81103900  0.62796755  0.00000000  1
  Ni  Ni12  1  0.00000000  0.32241538  0.59574829  1
  Ni  Ni13  1  0.00000000  0.59574829  0.32241538  1
  Ni  Ni14  1  0.72666709  0.40425171  0.40425171  1
  Ni  Ni15  1  0.27333291  0.67758462  0.67758462  1
  Ni  Ni16  1  0.32241538  0.00000000  0.59574829  1
  Ni  Ni17  1  0.59574829  0.00000000  0.32241538  1
  Ni  Ni18  1  0.67758462  0.27333291  0.67758462  1
  Ni  Ni19  1  0.40425171  0.72666709  0.40425171  1
  Ni  Ni20  1  0.67758462  0.67758462  0.27333291  1
  Ni  Ni21  1  0.40425171  0.40425171  0.72666709  1
  Ni  Ni22  1  0.59574829  0.32241538  0.00000000  1
  Ni  Ni23  1  0.32241538  0.59574829  0.00000000  1
  Ta  Ta0  1  0.00000000  0.00000000  0.38664205  1
  Ta  Ta1  1  0.00000000  0.38664205  0.00000000  1
  Ta  Ta2  1  0.61335795  0.61335795  0.61335795  1
  Ta  Ta3  1  0.38664205  0.00000000  0.00000000  1
  Ta  Ta4  1  0.00000000  0.00000000  0.00000000  1
