# generated using pymatgen
data_4518_AlMo3
_symmetry_space_group_name_H-M   'Immm'
_cell_length_a   5.19370148
_cell_length_b   5.19370148
_cell_length_c   5.19370148
_cell_angle_alpha   144.25948723
_cell_angle_beta   129.54990527
_cell_angle_gamma   63.35759175
_chemical_formula_structural   AlMo3
_chemical_formula_sum   'Al1 Mo3'
_cell_volume   62.36702423
loop_
 _symmetry_equiv_pos_site_id
 _symmetry_equiv_pos_as_xyz
  1  'x, y, z'
loop_
 _atom_type_symbol
  Al
  Mo
loop_
 _atom_site_type_symbol
 _atom_site_label
 _atom_site_symmetry_multiplicity
 _atom_site_fract_x
 _atom_site_fract_y
 _atom_site_fract_z
 _atom_site_occupancy
  Al  Al0  1  0.00000000  0.00000000  0.00000000  1
  Mo  Mo0  1  0.73967001  0.23967001  0.50000000  1
  Mo  Mo1  1  0.50000000  0.50000000  1.00000000  1
  Mo  Mo2  1  0.26032999  0.76032999  0.50000000  1
