# generated using pymatgen
data_4525_FePd3
_symmetry_space_group_name_H-M   'Pmmm'
_cell_length_a   2.76144787
_cell_length_b   3.80910761
_cell_length_c   6.21611889
_cell_angle_alpha   90.00000000
_cell_angle_beta   64.14749283
_cell_angle_gamma   90.00000000
_chemical_formula_structural   FePd3
_chemical_formula_sum   'Fe1 Pd3'
_cell_volume   58.84141163
loop_
 _symmetry_equiv_pos_site_id
 _symmetry_equiv_pos_as_xyz
  1  'x, y, z'
loop_
 _atom_type_symbol
  Fe
  Pd
loop_
 _atom_site_type_symbol
 _atom_site_label
 _atom_site_symmetry_multiplicity
 _atom_site_fract_x
 _atom_site_fract_y
 _atom_site_fract_z
 _atom_site_occupancy
  Fe  Fe0  1  0.00000000  0.00000000  0.00000000  1
  Pd  Pd0  1  0.25404454  0.50000000  0.24014350  1
  Pd  Pd1  1  0.50000000  0.00000000  0.50000000  1
  Pd  Pd2  1  0.74595546  0.50000000  0.75985650  1
