# generated using pymatgen
data_4528_In16Sn4
_symmetry_space_group_name_H-M   'I-43m'
_cell_length_a   9.18304773
_cell_length_b   9.18304773
_cell_length_c   9.18304773
_cell_angle_alpha   109.47122063
_cell_angle_beta   109.47122063
_cell_angle_gamma   109.47122063
_chemical_formula_structural   In16Sn4
_chemical_formula_sum   'In16 Sn4'
_cell_volume   596.12678297
loop_
 _symmetry_equiv_pos_site_id
 _symmetry_equiv_pos_as_xyz
  1  'x, y, z'
loop_
 _atom_type_symbol
  In
  Sn
loop_
 _atom_site_type_symbol
 _atom_site_label
 _atom_site_symmetry_multiplicity
 _atom_site_fract_x
 _atom_site_fract_y
 _atom_site_fract_z
 _atom_site_occupancy
  In  In0  1  0.66114250  0.66114250  0.66114250  1
  In  In1  1  0.33885750  0.00000000  0.00000000  1
  In  In2  1  1.00000000  0.33885750  0.00000000  1
  In  In3  1  1.00000000  0.00000000  0.33885750  1
  In  In4  1  0.66504463  0.66504463  0.00000000  1
  In  In5  1  0.33495537  0.33495537  0.00000000  1
  In  In6  1  0.66504463  0.00000000  0.66504463  1
  In  In7  1  0.33495537  0.00000000  0.33495537  1
  In  In8  1  0.00000000  0.66504463  0.66504463  1
  In  In9  1  1.00000000  0.33495537  0.33495537  1
  In  In10  1  0.24991242  0.74991242  0.50000000  1
  In  In11  1  0.75008758  0.25008758  0.50000000  1
  In  In12  1  0.74991242  0.50000000  0.24991242  1
  In  In13  1  0.25008758  0.50000000  0.75008758  1
  In  In14  1  0.50000000  0.24991242  0.74991242  1
  In  In15  1  0.50000000  0.75008758  0.25008758  1
  Sn  Sn0  1  0.33605048  0.33605048  0.33605048  1
  Sn  Sn1  1  0.66394952  0.00000000  0.00000000  1
  Sn  Sn2  1  1.00000000  0.66394952  0.00000000  1
  Sn  Sn3  1  1.00000000  0.00000000  0.66394952  1
