# generated using pymatgen
data_4529_Pd2Sm2
_symmetry_space_group_name_H-M   'Cmcm'
_cell_length_a   3.80313800
_cell_length_b   4.61030000
_cell_length_c   5.68207264
_cell_angle_alpha   90.00000000
_cell_angle_beta   70.44806566
_cell_angle_gamma   90.00000000
_chemical_formula_structural   Pd2Sm2
_chemical_formula_sum   'Pd2 Sm2'
_cell_volume   93.88257718
loop_
 _symmetry_equiv_pos_site_id
 _symmetry_equiv_pos_as_xyz
  1  'x, y, z'
loop_
 _atom_type_symbol
  Pd
  Sm
loop_
 _atom_site_type_symbol
 _atom_site_label
 _atom_site_symmetry_multiplicity
 _atom_site_fract_x
 _atom_site_fract_y
 _atom_site_fract_z
 _atom_site_occupancy
  Pd  Pd0  1  0.41465696  0.75000106  0.17068652  1
  Pd  Pd1  1  0.58534424  0.25000108  0.82931240  1
  Sm  Sm0  1  0.86244813  0.25000108  0.27510461  1
  Sm  Sm1  1  0.13755214  0.75000106  0.72489617  1
