# generated using pymatgen
data_452_AgAl2
_symmetry_space_group_name_H-M   'I4/mmm'
_cell_length_a   6.48037546
_cell_length_b   6.48037546
_cell_length_c   6.48037546
_cell_angle_alpha   154.36504951
_cell_angle_beta   154.36504951
_cell_angle_gamma   36.56922837
_chemical_formula_structural   AgAl2
_chemical_formula_sum   'Ag1 Al2'
_cell_volume   50.87012175
loop_
 _symmetry_equiv_pos_site_id
 _symmetry_equiv_pos_as_xyz
  1  'x, y, z'
loop_
 _atom_type_symbol
  Ag
  Al
loop_
 _atom_site_type_symbol
 _atom_site_label
 _atom_site_symmetry_multiplicity
 _atom_site_fract_x
 _atom_site_fract_y
 _atom_site_fract_z
 _atom_site_occupancy
  Ag  Ag0  1  0.00000000  0.00000000  0.00000000  1
  Al  Al0  1  0.33370375  0.33370375  0.00000000  1
  Al  Al1  1  0.66629625  0.66629625  0.00000000  1
