# generated using pymatgen
data_4531_InNi2
_symmetry_space_group_name_H-M   'I4/mmm'
_cell_length_a   4.81574260
_cell_length_b   4.81574260
_cell_length_c   4.81574260
_cell_angle_alpha   142.17953080
_cell_angle_beta   142.17953080
_cell_angle_gamma   54.55845999
_chemical_formula_structural   InNi2
_chemical_formula_sum   'In1 Ni2'
_cell_volume   41.70300802
loop_
 _symmetry_equiv_pos_site_id
 _symmetry_equiv_pos_as_xyz
  1  'x, y, z'
loop_
 _atom_type_symbol
  In
  Ni
loop_
 _atom_site_type_symbol
 _atom_site_label
 _atom_site_symmetry_multiplicity
 _atom_site_fract_x
 _atom_site_fract_y
 _atom_site_fract_z
 _atom_site_occupancy
  In  In0  1  0.00000000  0.00000000  0.00000000  1
  Ni  Ni0  1  0.67637196  0.67637196  0.00000000  1
  Ni  Ni1  1  0.32362804  0.32362804  0.00000000  1
