# generated using pymatgen
data_4532_Rh3Ge
_symmetry_space_group_name_H-M   'Fm -3 m'
_cell_length_a   4.33903705
_cell_length_b   4.33903705
_cell_length_c   4.33903705
_cell_angle_alpha   60.00000000
_cell_angle_beta   60.00000000
_cell_angle_gamma   60.00000000
_chemical_formula_structural   Rh3Ge
_chemical_formula_sum   'Ge1 Rh3'
_cell_volume   57.76503979
loop_
 _symmetry_equiv_pos_site_id
 _symmetry_equiv_pos_as_xyz
  1  'x, y, z'
loop_
 _atom_type_symbol
  Ge
  Rh
loop_
 _atom_site_type_symbol
 _atom_site_label
 _atom_site_symmetry_multiplicity
 _atom_site_fract_x
 _atom_site_fract_y
 _atom_site_fract_z
 _atom_site_occupancy
  Ge  Ge0  1  0.74999990  0.74999990  0.74999990  1
  Rh  Rh0  1  0.00000000  0.00000000  0.00000000  1
  Rh  Rh1  1  0.24999942  0.24999942  0.24999942  1
  Rh  Rh2  1  0.50000048  0.50000048  0.50000048  1
