# generated using pymatgen
data_4536_Ba4In5
_symmetry_space_group_name_H-M   'I4/mmm'
_cell_length_a   8.36544633
_cell_length_b   8.36544633
_cell_length_c   8.36544633
_cell_angle_alpha   96.14260850
_cell_angle_beta   96.14260850
_cell_angle_gamma   141.81261398
_chemical_formula_structural   Ba4In5
_chemical_formula_sum   'Ba4 In5'
_cell_volume   342.01572986
loop_
 _symmetry_equiv_pos_site_id
 _symmetry_equiv_pos_as_xyz
  1  'x, y, z'
loop_
 _atom_type_symbol
  Ba
  In
loop_
 _atom_site_type_symbol
 _atom_site_label
 _atom_site_symmetry_multiplicity
 _atom_site_fract_x
 _atom_site_fract_y
 _atom_site_fract_z
 _atom_site_occupancy
  Ba  Ba0  1  0.69683685  1.00000000  0.69683685  1
  Ba  Ba1  1  0.30316315  1.00000000  0.30316315  1
  Ba  Ba2  1  1.00000000  0.30316315  0.30316315  1
  Ba  Ba3  1  0.00000000  0.69683685  0.69683685  1
  In  In0  1  0.00000000  0.00000000  0.00000000  1
  In  In1  1  0.64592310  0.35407690  0.00000000  1
  In  In2  1  0.35407690  0.64592310  0.00000000  1
  In  In3  1  0.35407690  0.35407690  0.70815381  1
  In  In4  1  0.64592310  0.64592310  0.29184619  1
