# generated using pymatgen
data_4542_KGe3
_symmetry_space_group_name_H-M   'Pm -3 m'
_cell_length_a   4.51203718
_cell_length_b   4.51203718
_cell_length_c   4.51203718
_cell_angle_alpha   90.00000000
_cell_angle_beta   90.00000000
_cell_angle_gamma   90.00000000
_chemical_formula_structural   KGe3
_chemical_formula_sum   'Ge3 K1'
_cell_volume   91.85821649
loop_
 _symmetry_equiv_pos_site_id
 _symmetry_equiv_pos_as_xyz
  1  'x, y, z'
loop_
 _atom_type_symbol
  Ge
  K
loop_
 _atom_site_type_symbol
 _atom_site_label
 _atom_site_symmetry_multiplicity
 _atom_site_fract_x
 _atom_site_fract_y
 _atom_site_fract_z
 _atom_site_occupancy
  Ge  Ge0  1  0.00000000  0.50000000  0.50000000  1
  Ge  Ge1  1  0.50000000  0.00000000  0.50000000  1
  Ge  Ge2  1  0.50000000  0.50000000  0.00000000  1
  K  K0  1  0.00000000  0.00000000  0.00000000  1
