# generated using pymatgen
data_4555_Fe2V6
_symmetry_space_group_name_H-M   'P6_3/mmc'
_cell_length_a   5.08646900
_cell_length_b   5.08646980
_cell_length_c   4.49240500
_cell_angle_alpha   90.00000000
_cell_angle_beta   90.00000000
_cell_angle_gamma   120.00000133
_chemical_formula_structural   Fe2V6
_chemical_formula_sum   'Fe2 V6'
_cell_volume   100.65663318
loop_
 _symmetry_equiv_pos_site_id
 _symmetry_equiv_pos_as_xyz
  1  'x, y, z'
loop_
 _atom_type_symbol
  Fe
  V
loop_
 _atom_site_type_symbol
 _atom_site_label
 _atom_site_symmetry_multiplicity
 _atom_site_fract_x
 _atom_site_fract_y
 _atom_site_fract_z
 _atom_site_occupancy
  Fe  Fe0  1  0.66666805  0.33333397  0.24999969  1
  Fe  Fe1  1  0.33333397  0.66666794  0.74999908  1
  V  V0  1  0.17161703  0.34323406  0.24999969  1
  V  V1  1  0.17161692  0.82838374  0.24999969  1
  V  V2  1  0.65676682  0.82838374  0.24999969  1
  V  V3  1  0.34323210  0.17161589  0.74999908  1
  V  V4  1  0.82838200  0.17161589  0.74999908  1
  V  V5  1  0.82838189  0.65676558  0.74999908  1
