# generated using pymatgen
data_4556_Au8Cu16
_symmetry_space_group_name_H-M   'Fd -3 m'
_cell_length_a   8.16319636
_cell_length_b   8.16319636
_cell_length_c   8.16319636
_cell_angle_alpha   60.00000000
_cell_angle_beta   60.00000000
_cell_angle_gamma   60.00000000
_chemical_formula_structural   Au8Cu16
_chemical_formula_sum   'Au8 Cu16'
_cell_volume   384.64999531
loop_
 _symmetry_equiv_pos_site_id
 _symmetry_equiv_pos_as_xyz
  1  'x, y, z'
loop_
 _atom_type_symbol
  Au
  Cu
loop_
 _atom_site_type_symbol
 _atom_site_label
 _atom_site_symmetry_multiplicity
 _atom_site_fract_x
 _atom_site_fract_y
 _atom_site_fract_z
 _atom_site_occupancy
  Au  Au0  1  0.72465869  0.82602392  0.72465869  1
  Au  Au1  1  0.32602392  0.22465869  0.72465869  1
  Au  Au2  1  0.72465869  0.22465869  0.32602392  1
  Au  Au3  1  0.72465869  0.22465869  0.72465869  1
  Au  Au4  1  0.27534131  0.17397608  0.27534131  1
  Au  Au5  1  0.67397608  0.77534131  0.27534131  1
  Au  Au6  1  0.27534131  0.77534131  0.67397608  1
  Au  Au7  1  0.27534131  0.77534131  0.27534131  1
  Cu  Cu0  1  0.50000000  0.00000000  0.50000000  1
  Cu  Cu1  1  0.50000000  0.00000000  0.00000000  1
  Cu  Cu2  1  0.00000000  0.00000000  0.50000000  1
  Cu  Cu3  1  0.50000000  0.50000000  0.50000000  1
  Cu  Cu4  1  0.34227035  0.84227035  0.90772965  1
  Cu  Cu5  1  0.90772965  0.84227035  0.34227035  1
  Cu  Cu6  1  0.90772965  0.84227035  0.90772965  1
  Cu  Cu7  1  0.34227035  0.40772965  0.34227035  1
  Cu  Cu8  1  0.34227035  0.40772965  0.90772965  1
  Cu  Cu9  1  0.90772965  0.40772965  0.34227035  1
  Cu  Cu10  1  0.65772965  0.15772965  0.09227035  1
  Cu  Cu11  1  0.09227035  0.15772965  0.65772965  1
  Cu  Cu12  1  0.09227035  0.15772965  0.09227035  1
  Cu  Cu13  1  0.65772965  0.59227035  0.65772965  1
  Cu  Cu14  1  0.65772965  0.59227035  0.09227035  1
  Cu  Cu15  1  0.09227035  0.59227035  0.65772965  1
