# generated using pymatgen
data_4562_SbP2
_symmetry_space_group_name_H-M   'I4/mmm'
_cell_length_a   6.72273676
_cell_length_b   6.72273676
_cell_length_c   6.72273676
_cell_angle_alpha   152.52140130
_cell_angle_beta   152.52140130
_cell_angle_gamma   39.25236836
_chemical_formula_structural   SbP2
_chemical_formula_sum   'P2 Sb1'
_cell_volume   64.57264596
loop_
 _symmetry_equiv_pos_site_id
 _symmetry_equiv_pos_as_xyz
  1  'x, y, z'
loop_
 _atom_type_symbol
  P
  Sb
loop_
 _atom_site_type_symbol
 _atom_site_label
 _atom_site_symmetry_multiplicity
 _atom_site_fract_x
 _atom_site_fract_y
 _atom_site_fract_z
 _atom_site_occupancy
  P  P0  1  0.10920433  0.10920433  0.00000000  1
  P  P1  1  0.55746234  0.55746234  0.00000000  1
  Sb  Sb0  1  0.33333333  0.33333333  0.00000000  1
