# generated using pymatgen
data_4568_Mn2Sb2
_symmetry_space_group_name_H-M   'I4_1/amd'
_cell_length_a   5.65664530
_cell_length_b   5.65664530
_cell_length_c   5.65664530
_cell_angle_alpha   137.85101371
_cell_angle_beta   137.85101371
_cell_angle_gamma   61.13125471
_chemical_formula_structural   Mn2Sb2
_chemical_formula_sum   'Mn2 Sb2'
_cell_volume   80.60432703
loop_
 _symmetry_equiv_pos_site_id
 _symmetry_equiv_pos_as_xyz
  1  'x, y, z'
loop_
 _atom_type_symbol
  Mn
  Sb
loop_
 _atom_site_type_symbol
 _atom_site_label
 _atom_site_symmetry_multiplicity
 _atom_site_fract_x
 _atom_site_fract_y
 _atom_site_fract_z
 _atom_site_occupancy
  Mn  Mn0  1  0.00000000  0.00000000  0.00000000  1
  Mn  Mn1  1  0.25000000  0.75000000  0.50000000  1
  Sb  Sb0  1  0.50000000  0.50000000  0.00000000  1
  Sb  Sb1  1  0.75000000  0.25000000  0.50000000  1
