# generated using pymatgen
data_4574_Pt2V2
_symmetry_space_group_name_H-M   'Imma'
_cell_length_a   3.91005577
_cell_length_b   4.77566298
_cell_length_c   3.75046198
_cell_angle_alpha   66.87963603
_cell_angle_beta   90.00000000
_cell_angle_gamma   114.16545897
_chemical_formula_structural   Pt2V2
_chemical_formula_sum   'Pt2 V2'
_cell_volume   57.67524602
loop_
 _symmetry_equiv_pos_site_id
 _symmetry_equiv_pos_as_xyz
  1  'x, y, z'
loop_
 _atom_type_symbol
  Pt
  V
loop_
 _atom_site_type_symbol
 _atom_site_label
 _atom_site_symmetry_multiplicity
 _atom_site_fract_x
 _atom_site_fract_y
 _atom_site_fract_z
 _atom_site_occupancy
  Pt  Pt0  1  0.99770437  0.99540874  0.00229563  1
  Pt  Pt1  1  0.25229563  0.50459126  0.24770437  1
  V  V0  1  0.50273226  0.00546451  0.49726774  1
  V  V1  1  0.74726774  0.49453549  0.75273226  1
