# generated using pymatgen
data_4576_AcPb
_symmetry_space_group_name_H-M   'P-6m2'
_cell_length_a   3.77853260
_cell_length_b   3.77853652
_cell_length_c   5.76552254
_cell_angle_alpha   90.00000000
_cell_angle_beta   90.00000000
_cell_angle_gamma   119.99997548
_chemical_formula_structural   AcPb
_chemical_formula_sum   'Ac1 Pb1'
_cell_volume   71.28796385
loop_
 _symmetry_equiv_pos_site_id
 _symmetry_equiv_pos_as_xyz
  1  'x, y, z'
loop_
 _atom_type_symbol
  Ac
  Pb
loop_
 _atom_site_type_symbol
 _atom_site_label
 _atom_site_symmetry_multiplicity
 _atom_site_fract_x
 _atom_site_fract_y
 _atom_site_fract_z
 _atom_site_occupancy
  Ac  Ac0  1  0.66666707  0.33333314  0.75000000  1
  Pb  Pb0  1  0.33333293  0.66666686  0.25000000  1
