# generated using pymatgen
data_4578_AlFe2
_symmetry_space_group_name_H-M   'Fmmm'
_cell_length_a   3.10388491
_cell_length_b   6.01103080
_cell_length_c   2.57565447
_cell_angle_alpha   81.05037645
_cell_angle_beta   127.05224110
_cell_angle_gamma   104.96224038
_chemical_formula_structural   AlFe2
_chemical_formula_sum   'Al1 Fe2'
_cell_volume   37.05206971
loop_
 _symmetry_equiv_pos_site_id
 _symmetry_equiv_pos_as_xyz
  1  'x, y, z'
loop_
 _atom_type_symbol
  Al
  Fe
loop_
 _atom_site_type_symbol
 _atom_site_label
 _atom_site_symmetry_multiplicity
 _atom_site_fract_x
 _atom_site_fract_y
 _atom_site_fract_z
 _atom_site_occupancy
  Al  Al0  1  0.50000000  0.00000000  0.00000000  1
  Fe  Fe0  1  0.83226746  0.66453493  0.00000000  1
  Fe  Fe1  1  0.16773254  0.33546507  0.00000000  1
