# generated using pymatgen
data_4585_CsIr
_symmetry_space_group_name_H-M   'R -3 m'
_cell_length_a   6.17723503
_cell_length_b   6.17723503
_cell_length_c   6.17723487
_cell_angle_alpha   29.94784793
_cell_angle_beta   29.94784793
_cell_angle_gamma   29.94784867
_chemical_formula_structural   CsIr
_chemical_formula_sum   'Cs1 Ir1'
_cell_volume   52.02892412
loop_
 _symmetry_equiv_pos_site_id
 _symmetry_equiv_pos_as_xyz
  1  'x, y, z'
loop_
 _atom_type_symbol
  Cs
  Ir
loop_
 _atom_site_type_symbol
 _atom_site_label
 _atom_site_symmetry_multiplicity
 _atom_site_fract_x
 _atom_site_fract_y
 _atom_site_fract_z
 _atom_site_occupancy
  Cs  Cs0  1  0.00000000  0.00000000  0.00000000  1
  Ir  Ir0  1  0.50000000  0.50000000  0.50000000  1
