# generated using pymatgen
data_4587_InMo8
_symmetry_space_group_name_H-M   'I4/mmm'
_cell_length_a   6.18582214
_cell_length_b   6.18582214
_cell_length_c   6.18582214
_cell_angle_alpha   97.51599616
_cell_angle_beta   97.51599616
_cell_angle_gamma   137.59479079
_chemical_formula_structural   InMo8
_chemical_formula_sum   'In1 Mo8'
_cell_volume   148.81589972
loop_
 _symmetry_equiv_pos_site_id
 _symmetry_equiv_pos_as_xyz
  1  'x, y, z'
loop_
 _atom_type_symbol
  In
  Mo
loop_
 _atom_site_type_symbol
 _atom_site_label
 _atom_site_symmetry_multiplicity
 _atom_site_fract_x
 _atom_site_fract_y
 _atom_site_fract_z
 _atom_site_occupancy
  In  In0  1  0.00000000  0.00000000  0.00000000  1
  Mo  Mo0  1  0.33596632  0.66403368  0.00000000  1
  Mo  Mo1  1  0.66403368  0.33596632  0.00000000  1
  Mo  Mo2  1  0.00000000  0.33829070  0.33829070  1
  Mo  Mo3  1  0.66403368  0.66403368  0.32806736  1
  Mo  Mo4  1  0.33829070  0.00000000  0.33829070  1
  Mo  Mo5  1  0.33596632  0.33596632  0.67193264  1
  Mo  Mo6  1  1.00000000  0.66170930  0.66170930  1
  Mo  Mo7  1  0.66170930  1.00000000  0.66170930  1
