# generated using pymatgen
data_4590_In2Br2
_symmetry_space_group_name_H-M   'P4/nmm'
_cell_length_a   4.60916567
_cell_length_b   4.60916567
_cell_length_c   6.93195085
_cell_angle_alpha   90.00000000
_cell_angle_beta   90.00000000
_cell_angle_gamma   90.00000000
_chemical_formula_structural   In2Br2
_chemical_formula_sum   'Br2 In2'
_cell_volume   147.26519330
loop_
 _symmetry_equiv_pos_site_id
 _symmetry_equiv_pos_as_xyz
  1  'x, y, z'
loop_
 _atom_type_symbol
  Br
  In
loop_
 _atom_site_type_symbol
 _atom_site_label
 _atom_site_symmetry_multiplicity
 _atom_site_fract_x
 _atom_site_fract_y
 _atom_site_fract_z
 _atom_site_occupancy
  Br  Br0  1  0.00000000  0.00000000  0.93796842  1
  Br  Br1  1  0.50000000  0.50000000  0.31203158  1
  In  In0  1  0.00000000  0.00000000  0.38289874  1
  In  In1  1  0.50000000  0.50000000  0.86710126  1
