# generated using pymatgen
data_4593_K2Pd6
_symmetry_space_group_name_H-M   'Pmmn'
_cell_length_a   7.60941875
_cell_length_b   4.54607271
_cell_length_c   5.97127503
_cell_angle_alpha   90.00000000
_cell_angle_beta   90.00000000
_cell_angle_gamma   90.00000000
_chemical_formula_structural   K2Pd6
_chemical_formula_sum   'K2 Pd6'
_cell_volume   206.56414346
loop_
 _symmetry_equiv_pos_site_id
 _symmetry_equiv_pos_as_xyz
  1  'x, y, z'
loop_
 _atom_type_symbol
  K
  Pd
loop_
 _atom_site_type_symbol
 _atom_site_label
 _atom_site_symmetry_multiplicity
 _atom_site_fract_x
 _atom_site_fract_y
 _atom_site_fract_z
 _atom_site_occupancy
  K  K0  1  0.00000000  0.00000000  0.59029695  1
  K  K1  1  0.50000000  0.50000000  0.40970305  1
  Pd  Pd0  1  0.00000000  0.50000000  0.07612300  1
  Pd  Pd1  1  0.17691580  0.00000000  0.08046193  1
  Pd  Pd2  1  0.32308420  0.50000000  0.91953807  1
  Pd  Pd3  1  0.50000000  0.00000000  0.92387700  1
  Pd  Pd4  1  0.82308420  0.00000000  0.08046193  1
  Pd  Pd5  1  0.67691580  0.50000000  0.91953807  1
