# generated using pymatgen
data_4598_Ni3Rh3
_symmetry_space_group_name_H-M   'Cm'
_cell_length_a   6.83258687
_cell_length_b   2.64672362
_cell_length_c   4.49680503
_cell_angle_alpha   107.11492834
_cell_angle_beta   103.12762998
_cell_angle_gamma   78.83215129
_chemical_formula_structural   Ni3Rh3
_chemical_formula_sum   'Ni3 Rh3'
_cell_volume   74.98169344
loop_
 _symmetry_equiv_pos_site_id
 _symmetry_equiv_pos_as_xyz
  1  'x, y, z'
loop_
 _atom_type_symbol
  Ni
  Rh
loop_
 _atom_site_type_symbol
 _atom_site_label
 _atom_site_symmetry_multiplicity
 _atom_site_fract_x
 _atom_site_fract_y
 _atom_site_fract_z
 _atom_site_occupancy
  Ni  Ni0  1  0.00373454  0.99960465  0.00294383  1
  Ni  Ni1  1  0.16715713  0.66562228  0.49840169  1
  Ni  Ni2  1  0.49542503  0.00162240  0.49866982  1
  Rh  Rh0  1  0.32728824  0.33613290  0.99955404  1
  Rh  Rh1  1  0.66775632  0.66462248  0.99700129  1
  Rh  Rh2  1  0.83863873  0.33239530  0.50342932  1
