# generated using pymatgen
data_45_CaRh2
_symmetry_space_group_name_H-M   'I4/mmm'
_cell_length_a   5.60027583
_cell_length_b   5.60027583
_cell_length_c   5.60027583
_cell_angle_alpha   144.59107196
_cell_angle_beta   144.59107196
_cell_angle_gamma   50.94434092
_chemical_formula_structural   CaRh2
_chemical_formula_sum   'Ca1 Rh2'
_cell_volume   58.65846439
loop_
 _symmetry_equiv_pos_site_id
 _symmetry_equiv_pos_as_xyz
  1  'x, y, z'
loop_
 _atom_type_symbol
  Ca
  Rh
loop_
 _atom_site_type_symbol
 _atom_site_label
 _atom_site_symmetry_multiplicity
 _atom_site_fract_x
 _atom_site_fract_y
 _atom_site_fract_z
 _atom_site_occupancy
  Ca  Ca0  1  0.00000000  0.00000000  0.00000000  1
  Rh  Rh0  1  0.70577150  0.70577150  0.00000000  1
  Rh  Rh1  1  0.29422850  0.29422850  0.00000000  1
