# generated using pymatgen
data_4607_In4Mo
_symmetry_space_group_name_H-M   'I4/m'
_cell_length_a   5.59650370
_cell_length_b   5.59650370
_cell_length_c   5.59650370
_cell_angle_alpha   97.06685150
_cell_angle_beta   97.06685150
_cell_angle_gamma   138.93329895
_chemical_formula_structural   In4Mo
_chemical_formula_sum   'In4 Mo1'
_cell_volume   107.83686544
loop_
 _symmetry_equiv_pos_site_id
 _symmetry_equiv_pos_as_xyz
  1  'x, y, z'
loop_
 _atom_type_symbol
  In
  Mo
loop_
 _atom_site_type_symbol
 _atom_site_label
 _atom_site_symmetry_multiplicity
 _atom_site_fract_x
 _atom_site_fract_y
 _atom_site_fract_z
 _atom_site_occupancy
  In  In0  1  0.78824468  0.39524754  0.18349222  1
  In  In1  1  0.39524754  0.21175532  0.60700287  1
  In  In2  1  0.21175532  0.60475246  0.81650778  1
  In  In3  1  0.60475246  0.78824468  0.39299713  1
  Mo  Mo0  1  0.00000000  0.00000000  0.00000000  1
