# generated using pymatgen
data_4613_In3Mo5
_symmetry_space_group_name_H-M   'Cmmm'
_cell_length_a   6.38993692
_cell_length_b   6.38993692
_cell_length_c   3.45563835
_cell_angle_alpha   90.00000000
_cell_angle_beta   90.00000000
_cell_angle_gamma   89.56344343
_chemical_formula_structural   In3Mo5
_chemical_formula_sum   'In3 Mo5'
_cell_volume   141.09408930
loop_
 _symmetry_equiv_pos_site_id
 _symmetry_equiv_pos_as_xyz
  1  'x, y, z'
loop_
 _atom_type_symbol
  In
  Mo
loop_
 _atom_site_type_symbol
 _atom_site_label
 _atom_site_symmetry_multiplicity
 _atom_site_fract_x
 _atom_site_fract_y
 _atom_site_fract_z
 _atom_site_occupancy
  In  In0  1  0.50000000  0.50000000  0.00000000  1
  In  In1  1  0.75802904  0.24197096  0.50000000  1
  In  In2  1  0.24197096  0.75802904  0.50000000  1
  Mo  Mo0  1  0.00000000  0.00000000  0.00000000  1
  Mo  Mo1  1  0.00000000  0.50000000  0.00000000  1
  Mo  Mo2  1  0.50000000  0.00000000  0.00000000  1
  Mo  Mo3  1  0.23998034  0.23998034  0.50000000  1
  Mo  Mo4  1  0.76001966  0.76001966  0.50000000  1
