# generated using pymatgen
data_4614_Al2K4
_symmetry_space_group_name_H-M   'Pnnm'
_cell_length_a   3.50774523
_cell_length_b   8.86810970
_cell_length_c   9.36473691
_cell_angle_alpha   90.00000000
_cell_angle_beta   90.00000000
_cell_angle_gamma   90.00000000
_chemical_formula_structural   Al2K4
_chemical_formula_sum   'Al2 K4'
_cell_volume   291.30952190
loop_
 _symmetry_equiv_pos_site_id
 _symmetry_equiv_pos_as_xyz
  1  'x, y, z'
loop_
 _atom_type_symbol
  Al
  K
loop_
 _atom_site_type_symbol
 _atom_site_label
 _atom_site_symmetry_multiplicity
 _atom_site_fract_x
 _atom_site_fract_y
 _atom_site_fract_z
 _atom_site_occupancy
  Al  Al0  1  0.00000000  0.00000000  0.00000000  1
  Al  Al1  1  0.50000000  0.50000000  0.50000000  1
  K  K0  1  0.00000000  0.20098843  0.67963892  1
  K  K1  1  0.00000000  0.79901157  0.32036108  1
  K  K2  1  0.50000000  0.70098843  0.82036108  1
  K  K3  1  0.50000000  0.29901157  0.17963892  1
