# generated using pymatgen
data_4615_Nb2As2
_symmetry_space_group_name_H-M   'P4/nmm'
_cell_length_a   2.81361922
_cell_length_b   2.81361922
_cell_length_c   9.89948294
_cell_angle_alpha   90.00000000
_cell_angle_beta   90.00000000
_cell_angle_gamma   90.00000000
_chemical_formula_structural   Nb2As2
_chemical_formula_sum   'As2 Nb2'
_cell_volume   78.36879256
loop_
 _symmetry_equiv_pos_site_id
 _symmetry_equiv_pos_as_xyz
  1  'x, y, z'
loop_
 _atom_type_symbol
  As
  Nb
loop_
 _atom_site_type_symbol
 _atom_site_label
 _atom_site_symmetry_multiplicity
 _atom_site_fract_x
 _atom_site_fract_y
 _atom_site_fract_z
 _atom_site_occupancy
  As  As0  1  0.00000000  0.00000000  0.04516793  1
  As  As1  1  0.50000000  0.50000000  0.70483207  1
  Nb  Nb0  1  0.00000000  0.00000000  0.49566944  1
  Nb  Nb1  1  0.50000000  0.50000000  0.25433056  1
