# generated using pymatgen
data_461_Nb2Pt2
_symmetry_space_group_name_H-M   'Pmma'
_cell_length_a   4.64801849
_cell_length_b   2.80843560
_cell_length_c   5.77177991
_cell_angle_alpha   60.92997102
_cell_angle_beta   90.00000000
_cell_angle_gamma   90.00000000
_chemical_formula_structural   Nb2Pt2
_chemical_formula_sum   'Nb2 Pt2'
_cell_volume   65.85165290
loop_
 _symmetry_equiv_pos_site_id
 _symmetry_equiv_pos_as_xyz
  1  'x, y, z'
loop_
 _atom_type_symbol
  Nb
  Pt
loop_
 _atom_site_type_symbol
 _atom_site_label
 _atom_site_symmetry_multiplicity
 _atom_site_fract_x
 _atom_site_fract_y
 _atom_site_fract_z
 _atom_site_occupancy
  Nb  Nb0  1  0.75000000  0.18052922  0.32118304  1
  Nb  Nb1  1  0.25000000  0.81947078  0.67881696  1
  Pt  Pt0  1  0.75000000  0.17510202  0.82514131  1
  Pt  Pt1  1  0.25000000  0.82489798  0.17485869  1
