# generated using pymatgen
data_4621_NaP3
_symmetry_space_group_name_H-M   'Imm2'
_cell_length_a   5.96796885
_cell_length_b   5.96796885
_cell_length_c   5.96796885
_cell_angle_alpha   155.93343143
_cell_angle_beta   127.48552940
_cell_angle_gamma   58.55812482
_chemical_formula_structural   NaP3
_chemical_formula_sum   'Na1 P3'
_cell_volume   68.40074310
loop_
 _symmetry_equiv_pos_site_id
 _symmetry_equiv_pos_as_xyz
  1  'x, y, z'
loop_
 _atom_type_symbol
  Na
  P
loop_
 _atom_site_type_symbol
 _atom_site_label
 _atom_site_symmetry_multiplicity
 _atom_site_fract_x
 _atom_site_fract_y
 _atom_site_fract_z
 _atom_site_occupancy
  Na  Na0  1  0.84504612  1.00000000  0.84504612  1
  P  P0  1  0.34382489  0.50000000  0.84382489  1
  P  P1  1  0.09727255  0.27504139  0.82223116  1
  P  P2  1  0.54718977  0.72495861  0.82223116  1
