# generated using pymatgen
data_4622_Na3Pd
_symmetry_space_group_name_H-M   'Imm2'
_cell_length_a   6.29784757
_cell_length_b   6.29784757
_cell_length_c   6.29784757
_cell_angle_alpha   148.79535269
_cell_angle_beta   129.22118802
_cell_angle_gamma   60.81454309
_chemical_formula_structural   Na3Pd
_chemical_formula_sum   'Na3 Pd1'
_cell_volume   99.37529409
loop_
 _symmetry_equiv_pos_site_id
 _symmetry_equiv_pos_as_xyz
  1  'x, y, z'
loop_
 _atom_type_symbol
  Na
  Pd
loop_
 _atom_site_type_symbol
 _atom_site_label
 _atom_site_symmetry_multiplicity
 _atom_site_fract_x
 _atom_site_fract_y
 _atom_site_fract_z
 _atom_site_occupancy
  Na  Na0  1  0.75387766  0.71122515  0.04265250  1
  Na  Na1  1  0.33142735  0.28877485  0.04265250  1
  Na  Na2  1  0.10742727  0.50000000  0.60742727  1
  Pd  Pd0  1  0.64059773  1.00000000  0.64059773  1
