# generated using pymatgen
data_4624_Sn4W2
_symmetry_space_group_name_H-M   'I4/mcm'
_cell_length_a   5.54674452
_cell_length_b   5.54674452
_cell_length_c   5.54674452
_cell_angle_alpha   103.94892773
_cell_angle_beta   103.94892773
_cell_angle_gamma   121.19056875
_chemical_formula_structural   Sn4W2
_chemical_formula_sum   'Sn4 W2'
_cell_volume   127.17843761
loop_
 _symmetry_equiv_pos_site_id
 _symmetry_equiv_pos_as_xyz
  1  'x, y, z'
loop_
 _atom_type_symbol
  Sn
  W
loop_
 _atom_site_type_symbol
 _atom_site_label
 _atom_site_symmetry_multiplicity
 _atom_site_fract_x
 _atom_site_fract_y
 _atom_site_fract_z
 _atom_site_occupancy
  Sn  Sn0  1  0.34632822  0.15367178  0.50000000  1
  Sn  Sn1  1  0.65367178  0.84632822  0.50000000  1
  Sn  Sn2  1  0.15367178  0.65367178  0.80734356  1
  Sn  Sn3  1  0.84632822  0.34632822  0.19265644  1
  W  W0  1  0.75000000  0.75000000  0.00000000  1
  W  W1  1  0.25000000  0.25000000  0.00000000  1
