# generated using pymatgen
data_4627_Cu2Mn2
_symmetry_space_group_name_H-M   'Cmcm'
_cell_length_a   2.44453149
_cell_length_b   5.04813447
_cell_length_c   3.85565550
_cell_angle_alpha   90.00000000
_cell_angle_beta   90.00000000
_cell_angle_gamma   104.01183194
_chemical_formula_structural   Cu2Mn2
_chemical_formula_sum   'Cu2 Mn2'
_cell_volume   46.16432841
loop_
 _symmetry_equiv_pos_site_id
 _symmetry_equiv_pos_as_xyz
  1  'x, y, z'
loop_
 _atom_type_symbol
  Cu
  Mn
loop_
 _atom_site_type_symbol
 _atom_site_label
 _atom_site_symmetry_multiplicity
 _atom_site_fract_x
 _atom_site_fract_y
 _atom_site_fract_z
 _atom_site_occupancy
  Cu  Cu0  1  0.18634836  0.37269673  0.25000000  1
  Cu  Cu1  1  0.81365164  0.62730327  0.75000000  1
  Mn  Mn0  1  0.44713351  0.89426703  0.25000000  1
  Mn  Mn1  1  0.55286649  0.10573297  0.75000000  1
