# generated using pymatgen
data_4636_Ag6Pt6
_symmetry_space_group_name_H-M   'Cmcm'
_cell_length_a   6.53413088
_cell_length_b   6.53413088
_cell_length_c   8.01651514
_cell_angle_alpha   90.00000000
_cell_angle_beta   90.00000000
_cell_angle_gamma   144.35418747
_chemical_formula_structural   Ag6Pt6
_chemical_formula_sum   'Ag6 Pt6'
_cell_volume   199.46221651
loop_
 _symmetry_equiv_pos_site_id
 _symmetry_equiv_pos_as_xyz
  1  'x, y, z'
loop_
 _atom_type_symbol
  Ag
  Pt
loop_
 _atom_site_type_symbol
 _atom_site_label
 _atom_site_symmetry_multiplicity
 _atom_site_fract_x
 _atom_site_fract_y
 _atom_site_fract_z
 _atom_site_occupancy
  Ag  Ag0  1  0.99677652  0.00322348  0.00000000  1
  Ag  Ag1  1  0.83333333  0.16666667  0.25000000  1
  Ag  Ag2  1  0.66989014  0.33010986  0.50000000  1
  Ag  Ag3  1  0.33297416  0.66702584  0.00000000  1
  Ag  Ag4  1  0.83333333  0.16666667  0.75000000  1
  Ag  Ag5  1  0.33369250  0.66630750  0.50000000  1
  Pt  Pt0  1  0.50599183  0.49400817  0.74121283  1
  Pt  Pt1  1  0.16067484  0.83932516  0.24121283  1
  Pt  Pt2  1  0.00335529  0.99664471  0.50000000  1
  Pt  Pt3  1  0.66331138  0.33668862  0.00000000  1
  Pt  Pt4  1  0.50599183  0.49400817  0.25878717  1
  Pt  Pt5  1  0.16067484  0.83932516  0.75878717  1
