# generated using pymatgen
data_4637_Na4P
_symmetry_space_group_name_H-M   'I4/mmm'
_cell_length_a   9.16124455
_cell_length_b   9.16124455
_cell_length_c   9.16124455
_cell_angle_alpha   154.68387854
_cell_angle_beta   154.68387854
_cell_angle_gamma   36.10635437
_chemical_formula_structural   Na4P
_chemical_formula_sum   'Na4 P1'
_cell_volume   140.41402051
loop_
 _symmetry_equiv_pos_site_id
 _symmetry_equiv_pos_as_xyz
  1  'x, y, z'
loop_
 _atom_type_symbol
  Na
  P
loop_
 _atom_site_type_symbol
 _atom_site_label
 _atom_site_symmetry_multiplicity
 _atom_site_fract_x
 _atom_site_fract_y
 _atom_site_fract_z
 _atom_site_occupancy
  Na  Na0  1  0.75000000  0.25000000  0.50000000  1
  Na  Na1  1  0.25000000  0.75000000  0.50000000  1
  Na  Na2  1  0.42152560  0.42152560  0.00000000  1
  Na  Na3  1  0.57847440  0.57847440  0.00000000  1
  P  P0  1  0.00000000  0.00000000  0.00000000  1
