# generated using pymatgen
data_4641_CuV3
_symmetry_space_group_name_H-M   'Fm -3 m'
_cell_length_a   4.21008507
_cell_length_b   4.21008507
_cell_length_c   4.21008507
_cell_angle_alpha   90.00000000
_cell_angle_beta   120.00000000
_cell_angle_gamma   60.00000000
_chemical_formula_structural   CuV3
_chemical_formula_sum   'Cu1 V3'
_cell_volume   52.76641822
loop_
 _symmetry_equiv_pos_site_id
 _symmetry_equiv_pos_as_xyz
  1  'x, y, z'
loop_
 _atom_type_symbol
  Cu
  V
loop_
 _atom_site_type_symbol
 _atom_site_label
 _atom_site_symmetry_multiplicity
 _atom_site_fract_x
 _atom_site_fract_y
 _atom_site_fract_z
 _atom_site_occupancy
  Cu  Cu0  1  0.00000000  0.00000000  0.00000000  1
  V  V0  1  0.50000000  0.25000000  0.25000000  1
  V  V1  1  0.00000000  0.50000000  0.50000000  1
  V  V2  1  0.50000000  0.75000000  0.75000000  1
