# generated using pymatgen
data_4642_AgSr
_symmetry_space_group_name_H-M   'P-6m2'
_cell_length_a   4.13929300
_cell_length_b   4.13928662
_cell_length_c   4.36679700
_cell_angle_alpha   89.99999824
_cell_angle_beta   90.00005393
_cell_angle_gamma   120.00057770
_chemical_formula_structural   AgSr
_chemical_formula_sum   'Ag1 Sr1'
_cell_volume   64.79519119
loop_
 _symmetry_equiv_pos_site_id
 _symmetry_equiv_pos_as_xyz
  1  'x, y, z'
loop_
 _atom_type_symbol
  Ag
  Sr
loop_
 _atom_site_type_symbol
 _atom_site_label
 _atom_site_symmetry_multiplicity
 _atom_site_fract_x
 _atom_site_fract_y
 _atom_site_fract_z
 _atom_site_occupancy
  Ag  Ag0  1  0.66666639  0.33333274  0.74999837  1
  Sr  Sr0  1  0.33333306  0.66666550  0.25000026  1
