# generated using pymatgen
data_4645_Na2P2
_symmetry_space_group_name_H-M   'P4/nmm'
_cell_length_a   3.46821965
_cell_length_b   3.46821965
_cell_length_c   7.37889446
_cell_angle_alpha   90.00000000
_cell_angle_beta   90.00000000
_cell_angle_gamma   90.00000000
_chemical_formula_structural   Na2P2
_chemical_formula_sum   'Na2 P2'
_cell_volume   88.75738281
loop_
 _symmetry_equiv_pos_site_id
 _symmetry_equiv_pos_as_xyz
  1  'x, y, z'
loop_
 _atom_type_symbol
  Na
  P
loop_
 _atom_site_type_symbol
 _atom_site_label
 _atom_site_symmetry_multiplicity
 _atom_site_fract_x
 _atom_site_fract_y
 _atom_site_fract_z
 _atom_site_occupancy
  Na  Na0  1  0.25000000  0.25000000  0.31821180  1
  Na  Na1  1  0.75000000  0.75000000  0.68178820  1
  P  P0  1  0.25000000  0.75000000  0.00000000  1
  P  P1  1  0.75000000  0.25000000  0.00000000  1
