# generated using pymatgen
data_4701_Fe8Ta4
_symmetry_space_group_name_H-M   'I4_1/amd'
_cell_length_a   11.74311906
_cell_length_b   11.74311906
_cell_length_c   11.74311906
_cell_angle_alpha   161.88825032
_cell_angle_beta   161.88825032
_cell_angle_gamma   25.72285013
_chemical_formula_structural   Fe8Ta4
_chemical_formula_sum   'Fe8 Ta4'
_cell_volume   156.44857170
loop_
 _symmetry_equiv_pos_site_id
 _symmetry_equiv_pos_as_xyz
  1  'x, y, z'
loop_
 _atom_type_symbol
  Fe
  Ta
loop_
 _atom_site_type_symbol
 _atom_site_label
 _atom_site_symmetry_multiplicity
 _atom_site_fract_x
 _atom_site_fract_y
 _atom_site_fract_z
 _atom_site_occupancy
  Fe  Fe0  1  0.75048414  0.75048414  0.00000000  1
  Fe  Fe1  1  0.24951586  0.24951586  0.00000000  1
  Fe  Fe2  1  0.00048414  0.50048414  0.50000000  1
  Fe  Fe3  1  0.49951586  0.99951586  0.50000000  1
  Fe  Fe4  1  0.58026183  0.58026184  0.00000000  1
  Fe  Fe5  1  0.41973817  0.41973816  0.00000000  1
  Fe  Fe6  1  0.83026183  0.33026184  0.50000000  1
  Fe  Fe7  1  0.66973817  0.16973816  0.50000000  1
  Ta  Ta0  1  0.92421293  0.92421294  0.00000000  1
  Ta  Ta1  1  0.07578707  0.07578706  0.00000000  1
  Ta  Ta2  1  0.17421293  0.67421294  0.50000000  1
  Ta  Ta3  1  0.32578707  0.82578706  0.50000000  1
