# generated using pymatgen
data_4703_Sr4Br2
_symmetry_space_group_name_H-M   'Cmcm'
_cell_length_a   9.21714612
_cell_length_b   9.21714612
_cell_length_c   7.25150543
_cell_angle_alpha   90.00000000
_cell_angle_beta   90.00000000
_cell_angle_gamma   154.63208882
_chemical_formula_structural   Sr4Br2
_chemical_formula_sum   'Br2 Sr4'
_cell_volume   263.93691238
loop_
 _symmetry_equiv_pos_site_id
 _symmetry_equiv_pos_as_xyz
  1  'x, y, z'
loop_
 _atom_type_symbol
  Br
  Sr
loop_
 _atom_site_type_symbol
 _atom_site_label
 _atom_site_symmetry_multiplicity
 _atom_site_fract_x
 _atom_site_fract_y
 _atom_site_fract_z
 _atom_site_occupancy
  Br  Br0  1  0.60625385  0.39374615  0.00000000  1
  Br  Br1  1  0.50485726  0.49514274  0.50000000  1
  Sr  Sr0  1  0.96601926  0.03398074  0.00000000  1
  Sr  Sr1  1  0.26137922  0.73862078  0.00000000  1
  Sr  Sr2  1  0.84973189  0.15026811  0.50000000  1
  Sr  Sr3  1  0.14509186  0.85490814  0.50000000  1
