# generated using pymatgen
data_470_P24As5
_symmetry_space_group_name_H-M   'I-43m'
_cell_length_a   9.48718387
_cell_length_b   9.48718387
_cell_length_c   9.48718387
_cell_angle_alpha   109.47122063
_cell_angle_beta   109.47122063
_cell_angle_gamma   109.47122063
_chemical_formula_structural   P24As5
_chemical_formula_sum   'As5 P24'
_cell_volume   657.34000229
loop_
 _symmetry_equiv_pos_site_id
 _symmetry_equiv_pos_as_xyz
  1  'x, y, z'
loop_
 _atom_type_symbol
  As
  P
loop_
 _atom_site_type_symbol
 _atom_site_label
 _atom_site_symmetry_multiplicity
 _atom_site_fract_x
 _atom_site_fract_y
 _atom_site_fract_z
 _atom_site_occupancy
  As  As0  1  1.00000000  0.54630386  0.00000000  1
  As  As1  1  0.54630386  0.00000000  0.00000000  1
  As  As2  1  1.00000000  0.00000000  0.54630386  1
  As  As3  1  0.45369614  0.45369614  0.45369614  1
  As  As4  1  0.00000000  0.00000000  0.00000000  1
  P  P0  1  0.18354020  0.33053303  0.00000000  1
  P  P1  1  0.33053303  0.18354020  0.00000000  1
  P  P2  1  0.81645980  0.81645980  0.14699283  1
  P  P3  1  0.66946697  0.66946697  0.85300717  1
  P  P4  1  0.81645980  0.14699283  0.81645980  1
  P  P5  1  0.66946697  0.85300717  0.66946697  1
  P  P6  1  0.33053303  0.00000000  0.18354020  1
  P  P7  1  0.18354020  0.00000000  0.33053303  1
  P  P8  1  1.00000000  0.33053303  0.18354020  1
  P  P9  1  1.00000000  0.18354020  0.33053303  1
  P  P10  1  0.85300717  0.66946697  0.66946697  1
  P  P11  1  0.14699283  0.81645980  0.81645980  1
  P  P12  1  0.73280341  0.53703265  0.00000000  1
  P  P13  1  0.53703265  0.73280341  0.00000000  1
  P  P14  1  0.26719659  0.26719659  0.80422924  1
  P  P15  1  0.46296735  0.46296735  0.19577076  1
  P  P16  1  0.26719659  0.80422924  0.26719659  1
  P  P17  1  0.46296735  0.19577076  0.46296735  1
  P  P18  1  0.53703265  0.00000000  0.73280341  1
  P  P19  1  0.73280341  0.00000000  0.53703265  1
  P  P20  1  0.00000000  0.53703265  0.73280341  1
  P  P21  1  0.00000000  0.73280341  0.53703265  1
  P  P22  1  0.19577076  0.46296735  0.46296735  1
  P  P23  1  0.80422924  0.26719659  0.26719659  1
