# generated using pymatgen
data_4710_Mn2V2
_symmetry_space_group_name_H-M   'Imma'
_cell_length_a   2.87032187
_cell_length_b   4.79898395
_cell_length_c   4.02091278
_cell_angle_alpha   114.50448692
_cell_angle_beta   90.00000000
_cell_angle_gamma   72.59913703
_chemical_formula_structural   Mn2V2
_chemical_formula_sum   'Mn2 V2'
_cell_volume   47.59819765
loop_
 _symmetry_equiv_pos_site_id
 _symmetry_equiv_pos_as_xyz
  1  'x, y, z'
loop_
 _atom_type_symbol
  Mn
  V
loop_
 _atom_site_type_symbol
 _atom_site_label
 _atom_site_symmetry_multiplicity
 _atom_site_fract_x
 _atom_site_fract_y
 _atom_site_fract_z
 _atom_site_occupancy
  Mn  Mn0  1  0.75092102  0.49815797  0.74909617  1
  Mn  Mn1  1  0.99907898  0.00184203  0.00090383  1
  V  V0  1  0.49767270  0.00465459  0.50186463  1
  V  V1  1  0.25232730  0.49534541  0.24813537  1
