# generated using pymatgen
data_4711_Fe3Mn
_symmetry_space_group_name_H-M   'I4/mmm'
_cell_length_a   4.23891820
_cell_length_b   4.23891820
_cell_length_c   4.23891820
_cell_angle_alpha   132.33246440
_cell_angle_beta   132.33246440
_cell_angle_gamma   69.70443966
_chemical_formula_structural   Fe3Mn
_chemical_formula_sum   'Fe3 Mn1'
_cell_volume   40.82405320
loop_
 _symmetry_equiv_pos_site_id
 _symmetry_equiv_pos_as_xyz
  1  'x, y, z'
loop_
 _atom_type_symbol
  Fe
  Mn
loop_
 _atom_site_type_symbol
 _atom_site_label
 _atom_site_symmetry_multiplicity
 _atom_site_fract_x
 _atom_site_fract_y
 _atom_site_fract_z
 _atom_site_occupancy
  Fe  Fe0  1  0.50000027  0.50000027  0.00000000  1
  Fe  Fe1  1  0.74999982  0.25000013  0.49999969  1
  Fe  Fe2  1  0.25000013  0.74999982  0.49999969  1
  Mn  Mn0  1  0.00000000  0.00000000  0.00000000  1
