# generated using pymatgen
data_4713_Al2Ba4
_symmetry_space_group_name_H-M   'I4/mcm'
_cell_length_a   7.11666024
_cell_length_b   7.11666024
_cell_length_c   7.11666024
_cell_angle_alpha   107.60717522
_cell_angle_beta   107.60717522
_cell_angle_gamma   113.26731402
_chemical_formula_structural   Al2Ba4
_chemical_formula_sum   'Al2 Ba4'
_cell_volume   276.54421072
loop_
 _symmetry_equiv_pos_site_id
 _symmetry_equiv_pos_as_xyz
  1  'x, y, z'
loop_
 _atom_type_symbol
  Al
  Ba
loop_
 _atom_site_type_symbol
 _atom_site_label
 _atom_site_symmetry_multiplicity
 _atom_site_fract_x
 _atom_site_fract_y
 _atom_site_fract_z
 _atom_site_occupancy
  Al  Al0  1  0.75000000  0.75000000  0.00000000  1
  Al  Al1  1  0.25000000  0.25000000  0.00000000  1
  Ba  Ba0  1  0.30317138  0.19682862  0.50000000  1
  Ba  Ba1  1  0.69682862  0.80317138  0.50000000  1
  Ba  Ba2  1  0.19682862  0.69682862  0.89365723  1
  Ba  Ba3  1  0.80317138  0.30317138  0.10634277  1
