# generated using pymatgen
data_4714_MoNp
_symmetry_space_group_name_H-M   'P-6m2'
_cell_length_a   3.06332215
_cell_length_b   3.06318604
_cell_length_c   4.56451847
_cell_angle_alpha   90.00000000
_cell_angle_beta   90.00000000
_cell_angle_gamma   120.00146975
_chemical_formula_structural   MoNp
_chemical_formula_sum   'Mo1 Np1'
_cell_volume   37.09242386
loop_
 _symmetry_equiv_pos_site_id
 _symmetry_equiv_pos_as_xyz
  1  'x, y, z'
loop_
 _atom_type_symbol
  Mo
  Np
loop_
 _atom_site_type_symbol
 _atom_site_label
 _atom_site_symmetry_multiplicity
 _atom_site_fract_x
 _atom_site_fract_y
 _atom_site_fract_z
 _atom_site_occupancy
  Mo  Mo0  1  0.66668465  0.33337119  0.74999926  1
  Np  Np0  1  0.33331464  0.66662929  0.24999975  1
