# generated using pymatgen
data_4715_CeU3
_symmetry_space_group_name_H-M   'I4/mmm'
_cell_length_a   5.84742414
_cell_length_b   5.84742414
_cell_length_c   5.84742414
_cell_angle_alpha   135.62207456
_cell_angle_beta   135.62207456
_cell_angle_gamma   64.56515814
_chemical_formula_structural   CeU3
_chemical_formula_sum   'Ce1 U3'
_cell_volume   96.43530090
loop_
 _symmetry_equiv_pos_site_id
 _symmetry_equiv_pos_as_xyz
  1  'x, y, z'
loop_
 _atom_type_symbol
  Ce
  U
loop_
 _atom_site_type_symbol
 _atom_site_label
 _atom_site_symmetry_multiplicity
 _atom_site_fract_x
 _atom_site_fract_y
 _atom_site_fract_z
 _atom_site_occupancy
  Ce  Ce0  1  0.00000000  0.00000000  0.00000000  1
  U  U0  1  0.50000000  0.50000000  0.00000000  1
  U  U1  1  0.75000000  0.25000000  0.50000000  1
  U  U2  1  0.25000000  0.75000000  0.50000000  1
