# generated using pymatgen
data_471_Mo3W3
_symmetry_space_group_name_H-M   'Cm'
_cell_length_a   3.17240987
_cell_length_b   5.26791329
_cell_length_c   6.34602842
_cell_angle_alpha   72.44732070
_cell_angle_beta   90.00000000
_cell_angle_gamma   107.52409709
_chemical_formula_structural   Mo3W3
_chemical_formula_sum   'Mo3 W3'
_cell_volume   95.94185707
loop_
 _symmetry_equiv_pos_site_id
 _symmetry_equiv_pos_as_xyz
  1  'x, y, z'
loop_
 _atom_type_symbol
  Mo
  W
loop_
 _atom_site_type_symbol
 _atom_site_label
 _atom_site_symmetry_multiplicity
 _atom_site_fract_x
 _atom_site_fract_y
 _atom_site_fract_z
 _atom_site_occupancy
  Mo  Mo0  1  0.02796603  0.05593206  0.94422789  1
  Mo  Mo1  1  0.36104204  0.72208408  0.77797645  1
  Mo  Mo2  1  0.36096412  0.72192824  0.27778984  1
  W  W0  1  0.69445621  0.38891243  0.61155030  1
  W  W1  1  0.02774610  0.05549219  0.44431516  1
  W  W2  1  0.69449216  0.38898433  0.11080703  1
