# generated using pymatgen
data_4722_Ba2Pb
_symmetry_space_group_name_H-M   'Immm'
_cell_length_a   5.99033069
_cell_length_b   8.55480097
_cell_length_c   6.10777616
_cell_angle_alpha   90.00000000
_cell_angle_beta   90.00000000
_cell_angle_gamma   90.00000000
_chemical_formula_structural   Ba2Pb
_chemical_formula_sum   'Ba4 Pb2'
_cell_volume   312.99962723
loop_
 _symmetry_equiv_pos_site_id
 _symmetry_equiv_pos_as_xyz
  1  'x, y, z'
loop_
 _atom_type_symbol
  Ba
  Pb
loop_
 _atom_site_type_symbol
 _atom_site_label
 _atom_site_symmetry_multiplicity
 _atom_site_fract_x
 _atom_site_fract_y
 _atom_site_fract_z
 _atom_site_occupancy
  Ba  Ba0  1  0.00000000  0.24775198  0.49691421  1
  Ba  Ba1  1  0.00000000  0.75224802  0.50308579  1
  Ba  Ba2  1  0.50000000  0.74775198  0.00308579  1
  Ba  Ba3  1  0.50000000  0.25224802  0.99691421  1
  Pb  Pb0  1  0.00000000  0.00000000  0.00000000  1
  Pb  Pb1  1  0.50000000  0.50000000  0.50000000  1
