# generated using pymatgen
data_4723_PaGe
_symmetry_space_group_name_H-M   'F-43m'
_cell_length_a   4.56044324
_cell_length_b   4.56044324
_cell_length_c   4.56044324
_cell_angle_alpha   60.00000000
_cell_angle_beta   60.00000000
_cell_angle_gamma   60.00000000
_chemical_formula_structural   PaGe
_chemical_formula_sum   'Ge1 Pa1'
_cell_volume   67.06658093
loop_
 _symmetry_equiv_pos_site_id
 _symmetry_equiv_pos_as_xyz
  1  'x, y, z'
loop_
 _atom_type_symbol
  Ge
  Pa
loop_
 _atom_site_type_symbol
 _atom_site_label
 _atom_site_symmetry_multiplicity
 _atom_site_fract_x
 _atom_site_fract_y
 _atom_site_fract_z
 _atom_site_occupancy
  Ge  Ge0  1  0.00000000  0.00000000  0.00000000  1
  Pa  Pa0  1  0.25000018  0.25000018  0.25000018  1
