# generated using pymatgen
data_4724_Cu3W
_symmetry_space_group_name_H-M   'Cmmm'
_cell_length_a   2.61895497
_cell_length_b   2.61895497
_cell_length_c   7.60153433
_cell_angle_alpha   90.00000000
_cell_angle_beta   90.00000000
_cell_angle_gamma   94.86986664
_chemical_formula_structural   Cu3W
_chemical_formula_sum   'Cu3 W1'
_cell_volume   51.95013965
loop_
 _symmetry_equiv_pos_site_id
 _symmetry_equiv_pos_as_xyz
  1  'x, y, z'
loop_
 _atom_type_symbol
  Cu
  W
loop_
 _atom_site_type_symbol
 _atom_site_label
 _atom_site_symmetry_multiplicity
 _atom_site_fract_x
 _atom_site_fract_y
 _atom_site_fract_z
 _atom_site_occupancy
  Cu  Cu0  1  1.00000000  0.00000000  0.98396212  1
  Cu  Cu1  1  0.50000000  0.50000000  0.75000000  1
  Cu  Cu2  1  1.00000000  0.00000000  0.51603788  1
  W  W0  1  0.50000000  0.50000000  0.25000000  1
