# generated using pymatgen
data_4729_Mn2V2
_symmetry_space_group_name_H-M   'Cmcm'
_cell_length_a   2.77321549
_cell_length_b   4.08595840
_cell_length_c   4.67606459
_cell_angle_alpha   90.00000000
_cell_angle_beta   107.24948912
_cell_angle_gamma   90.00000000
_chemical_formula_structural   Mn2V2
_chemical_formula_sum   'Mn2 V2'
_cell_volume   50.60246851
loop_
 _symmetry_equiv_pos_site_id
 _symmetry_equiv_pos_as_xyz
  1  'x, y, z'
loop_
 _atom_type_symbol
  Mn
  V
loop_
 _atom_site_type_symbol
 _atom_site_label
 _atom_site_symmetry_multiplicity
 _atom_site_fract_x
 _atom_site_fract_y
 _atom_site_fract_z
 _atom_site_occupancy
  Mn  Mn0  1  0.90942811  0.25000000  0.81885622  1
  Mn  Mn1  1  0.09057189  0.75000000  0.18114378  1
  V  V0  1  0.64772239  0.25000000  0.29544479  1
  V  V1  1  0.35227761  0.75000000  0.70455521  1
