# generated using pymatgen
data_472_Ca4P2
_symmetry_space_group_name_H-M   'Pnnm'
_cell_length_a   4.20780097
_cell_length_b   6.67710214
_cell_length_c   6.79465713
_cell_angle_alpha   90.00000000
_cell_angle_beta   90.00000000
_cell_angle_gamma   90.00000000
_chemical_formula_structural   Ca4P2
_chemical_formula_sum   'Ca4 P2'
_cell_volume   190.90212183
loop_
 _symmetry_equiv_pos_site_id
 _symmetry_equiv_pos_as_xyz
  1  'x, y, z'
loop_
 _atom_type_symbol
  Ca
  P
loop_
 _atom_site_type_symbol
 _atom_site_label
 _atom_site_symmetry_multiplicity
 _atom_site_fract_x
 _atom_site_fract_y
 _atom_site_fract_z
 _atom_site_occupancy
  Ca  Ca0  1  0.00000000  0.27347353  0.67609697  1
  Ca  Ca1  1  0.00000000  0.72652647  0.32390303  1
  Ca  Ca2  1  0.50000000  0.77347353  0.82390303  1
  Ca  Ca3  1  0.50000000  0.22652647  0.17609697  1
  P  P0  1  0.00000000  0.00000000  0.00000000  1
  P  P1  1  0.50000000  0.50000000  0.50000000  1
