# generated using pymatgen
data_4733_K6Br18
_symmetry_space_group_name_H-M   'Pmmn'
_cell_length_a   8.43012494
_cell_length_b   5.84315858
_cell_length_c   18.63102395
_cell_angle_alpha   90.00000000
_cell_angle_beta   90.00000000
_cell_angle_gamma   90.00000000
_chemical_formula_structural   K6Br18
_chemical_formula_sum   'Br18 K6'
_cell_volume   917.73735286
loop_
 _symmetry_equiv_pos_site_id
 _symmetry_equiv_pos_as_xyz
  1  'x, y, z'
loop_
 _atom_type_symbol
  Br
  K
loop_
 _atom_site_type_symbol
 _atom_site_label
 _atom_site_symmetry_multiplicity
 _atom_site_fract_x
 _atom_site_fract_y
 _atom_site_fract_z
 _atom_site_occupancy
  Br  Br0  1  0.15964771  0.98865167  0.41431052  1
  Br  Br1  1  0.15964771  0.98865167  0.08568948  1
  Br  Br2  1  0.51865755  0.95027452  0.75000000  1
  Br  Br3  1  0.48134245  0.04972548  0.25000000  1
  Br  Br4  1  0.84035229  0.01134833  0.91431052  1
  Br  Br5  1  0.84035229  0.01134833  0.58568948  1
  Br  Br6  1  0.89925628  0.25000000  0.25000000  1
  Br  Br7  1  0.40408925  0.25000000  0.87229070  1
  Br  Br8  1  0.40408925  0.25000000  0.62770930  1
  Br  Br9  1  0.15964771  0.51134833  0.41431052  1
  Br  Br10  1  0.15964771  0.51134833  0.08568948  1
  Br  Br11  1  0.51865755  0.54972548  0.75000000  1
  Br  Br12  1  0.48134245  0.45027452  0.25000000  1
  Br  Br13  1  0.84035229  0.48865167  0.91431052  1
  Br  Br14  1  0.84035229  0.48865167  0.58568948  1
  Br  Br15  1  0.10074372  0.75000000  0.75000000  1
  Br  Br16  1  0.59591075  0.75000000  0.37229070  1
  Br  Br17  1  0.59591075  0.75000000  0.12770930  1
  K  K0  1  0.97311685  0.25000000  0.75000000  1
  K  K1  1  0.74720560  0.25000000  0.42075256  1
  K  K2  1  0.74720560  0.25000000  0.07924744  1
  K  K3  1  0.02688315  0.75000000  0.25000000  1
  K  K4  1  0.25279440  0.75000000  0.92075256  1
  K  K5  1  0.25279440  0.75000000  0.57924744  1
