# generated using pymatgen
data_4735_V26W2
_symmetry_space_group_name_H-M   'Fm -3 c'
_cell_length_a   8.30836503
_cell_length_b   8.30836503
_cell_length_c   8.30836503
_cell_angle_alpha   60.00000000
_cell_angle_beta   60.00000000
_cell_angle_gamma   60.00000000
_chemical_formula_structural   V26W2
_chemical_formula_sum   'V26 W2'
_cell_volume   405.53814359
loop_
 _symmetry_equiv_pos_site_id
 _symmetry_equiv_pos_as_xyz
  1  'x, y, z'
loop_
 _atom_type_symbol
  V
  W
loop_
 _atom_site_type_symbol
 _atom_site_label
 _atom_site_symmetry_multiplicity
 _atom_site_fract_x
 _atom_site_fract_y
 _atom_site_fract_z
 _atom_site_occupancy
  V  V0  1  0.30386371  0.69613629  0.06638107  1
  V  V1  1  0.06638107  0.93361893  0.30386371  1
  V  V2  1  0.93361893  0.06638107  0.69613629  1
  V  V3  1  0.69613629  0.30386371  0.93361893  1
  V  V4  1  0.93361893  0.69613629  0.30386371  1
  V  V5  1  0.69613629  0.93361893  0.06638107  1
  V  V6  1  0.30386371  0.06638107  0.93361893  1
  V  V7  1  0.06638107  0.30386371  0.69613629  1
  V  V8  1  0.06638107  0.69613629  0.93361893  1
  V  V9  1  0.30386371  0.93361893  0.69613629  1
  V  V10  1  0.69613629  0.06638107  0.30386371  1
  V  V11  1  0.93361893  0.30386371  0.06638107  1
  V  V12  1  0.19613629  0.56638107  0.43361893  1
  V  V13  1  0.43361893  0.80386371  0.19613629  1
  V  V14  1  0.56638107  0.19613629  0.80386371  1
  V  V15  1  0.80386371  0.43361893  0.56638107  1
  V  V16  1  0.56638107  0.43361893  0.19613629  1
  V  V17  1  0.80386371  0.19613629  0.43361893  1
  V  V18  1  0.19613629  0.80386371  0.56638107  1
  V  V19  1  0.43361893  0.56638107  0.80386371  1
  V  V20  1  0.43361893  0.19613629  0.56638107  1
  V  V21  1  0.19613629  0.43361893  0.80386371  1
  V  V22  1  0.80386371  0.56638107  0.19613629  1
  V  V23  1  0.56638107  0.80386371  0.43361893  1
  V  V24  1  0.00000000  0.00000000  0.00000000  1
  V  V25  1  0.50000000  0.50000000  0.50000000  1
  W  W0  1  0.25000000  0.25000000  0.25000000  1
  W  W1  1  0.75000000  0.75000000  0.75000000  1
