# generated using pymatgen
data_4736_Rh6W2
_symmetry_space_group_name_H-M   'P6_3/mmc'
_cell_length_a   5.49102300
_cell_length_b   5.49104491
_cell_length_c   4.37669200
_cell_angle_alpha   90.00000000
_cell_angle_beta   90.00000000
_cell_angle_gamma   119.99986198
_chemical_formula_structural   Rh6W2
_chemical_formula_sum   'Rh6 W2'
_cell_volume   114.28401237
loop_
 _symmetry_equiv_pos_site_id
 _symmetry_equiv_pos_as_xyz
  1  'x, y, z'
loop_
 _atom_type_symbol
  Rh
  W
loop_
 _atom_site_type_symbol
 _atom_site_label
 _atom_site_symmetry_multiplicity
 _atom_site_fract_x
 _atom_site_fract_y
 _atom_site_fract_z
 _atom_site_occupancy
  Rh  Rh0  1  0.33384611  0.16692213  0.24999931  1
  Rh  Rh1  1  0.83307733  0.16692213  0.24999931  1
  Rh  Rh2  1  0.83307856  0.66615762  0.24999931  1
  Rh  Rh3  1  0.16692108  0.33384215  0.75000020  1
  Rh  Rh4  1  0.16692412  0.83307765  0.75000020  1
  Rh  Rh5  1  0.66615352  0.83307765  0.75000020  1
  W  W0  1  0.33330487  0.66660974  0.24999931  1
  W  W1  1  0.66669476  0.33339004  0.75000020  1
