# generated using pymatgen
data_4739_Ir16Mo14
_symmetry_space_group_name_H-M   'P4_2/mnm'
_cell_length_a   9.46213650
_cell_length_b   9.46213650
_cell_length_c   5.18536403
_cell_angle_alpha   90.00000000
_cell_angle_beta   90.00000000
_cell_angle_gamma   90.00000000
_chemical_formula_structural   Ir16Mo14
_chemical_formula_sum   'Ir16 Mo14'
_cell_volume   464.25615309
loop_
 _symmetry_equiv_pos_site_id
 _symmetry_equiv_pos_as_xyz
  1  'x, y, z'
loop_
 _atom_type_symbol
  Ir
  Mo
loop_
 _atom_site_type_symbol
 _atom_site_label
 _atom_site_symmetry_multiplicity
 _atom_site_fract_x
 _atom_site_fract_y
 _atom_site_fract_z
 _atom_site_occupancy
  Ir  Ir0  1  0.13885823  0.54613863  0.00000000  1
  Ir  Ir1  1  0.86114177  0.45386137  0.00000000  1
  Ir  Ir2  1  0.95386137  0.63885823  0.50000000  1
  Ir  Ir3  1  0.04613863  0.36114177  0.50000000  1
  Ir  Ir4  1  0.36114177  0.04613863  0.50000000  1
  Ir  Ir5  1  0.63885823  0.95386137  0.50000000  1
  Ir  Ir6  1  0.54613863  0.13885823  0.00000000  1
  Ir  Ir7  1  0.45386137  0.86114177  0.00000000  1
  Ir  Ir8  1  0.31868259  0.31868259  0.25070072  1
  Ir  Ir9  1  0.68131741  0.68131741  0.25070072  1
  Ir  Ir10  1  0.18131741  0.81868259  0.75070072  1
  Ir  Ir11  1  0.81868259  0.18131741  0.75070072  1
  Ir  Ir12  1  0.18131741  0.81868259  0.24929928  1
  Ir  Ir13  1  0.81868259  0.18131741  0.24929928  1
  Ir  Ir14  1  0.31868259  0.31868259  0.74929928  1
  Ir  Ir15  1  0.68131741  0.68131741  0.74929928  1
  Mo  Mo0  1  0.00000000  0.00000000  0.00000000  1
  Mo  Mo1  1  0.50000000  0.50000000  0.50000000  1
  Mo  Mo2  1  0.40745174  0.59254826  0.00000000  1
  Mo  Mo3  1  0.59254826  0.40745174  0.00000000  1
  Mo  Mo4  1  0.90745174  0.90745174  0.50000000  1
  Mo  Mo5  1  0.09254826  0.09254826  0.50000000  1
  Mo  Mo6  1  0.06358408  0.26922354  0.00000000  1
  Mo  Mo7  1  0.93641592  0.73077646  0.00000000  1
  Mo  Mo8  1  0.23077646  0.56358408  0.50000000  1
  Mo  Mo9  1  0.76922354  0.43641592  0.50000000  1
  Mo  Mo10  1  0.43641592  0.76922354  0.50000000  1
  Mo  Mo11  1  0.56358408  0.23077646  0.50000000  1
  Mo  Mo12  1  0.26922354  0.06358408  0.00000000  1
  Mo  Mo13  1  0.73077646  0.93641592  0.00000000  1
