# generated using pymatgen
data_4742_Ge5As
_symmetry_space_group_name_H-M   'Cmmm'
_cell_length_a   6.73621784
_cell_length_b   6.73621784
_cell_length_c   4.30080667
_cell_angle_alpha   90.00000000
_cell_angle_beta   90.00000000
_cell_angle_gamma   142.73055599
_chemical_formula_structural   Ge5As
_chemical_formula_sum   'As1 Ge5'
_cell_volume   118.17953516
loop_
 _symmetry_equiv_pos_site_id
 _symmetry_equiv_pos_as_xyz
  1  'x, y, z'
loop_
 _atom_type_symbol
  As
  Ge
loop_
 _atom_site_type_symbol
 _atom_site_label
 _atom_site_symmetry_multiplicity
 _atom_site_fract_x
 _atom_site_fract_y
 _atom_site_fract_z
 _atom_site_occupancy
  As  As0  1  0.97251500  0.02748500  0.00000000  1
  Ge  Ge0  1  0.80497169  0.19502831  0.50000000  1
  Ge  Ge1  1  0.63633570  0.36366430  0.00000000  1
  Ge  Ge2  1  0.47200124  0.52799876  0.50000000  1
  Ge  Ge3  1  0.30856063  0.69143937  0.00000000  1
  Ge  Ge4  1  0.13894907  0.86105093  0.50000000  1
