# generated using pymatgen
data_4746_Au2Ni2
_symmetry_space_group_name_H-M   'Cmcm'
_cell_length_a   2.74869022
_cell_length_b   5.12408449
_cell_length_c   4.45368365
_cell_angle_alpha   90.00000000
_cell_angle_beta   90.00000000
_cell_angle_gamma   74.44205360
_chemical_formula_structural   Au2Ni2
_chemical_formula_sum   'Au2 Ni2'
_cell_volume   60.42962698
loop_
 _symmetry_equiv_pos_site_id
 _symmetry_equiv_pos_as_xyz
  1  'x, y, z'
loop_
 _atom_type_symbol
  Au
  Ni
loop_
 _atom_site_type_symbol
 _atom_site_label
 _atom_site_symmetry_multiplicity
 _atom_site_fract_x
 _atom_site_fract_y
 _atom_site_fract_z
 _atom_site_occupancy
  Au  Au0  1  0.59903505  0.80192991  0.25000000  1
  Au  Au1  1  0.40096495  0.19807009  0.75000000  1
  Ni  Ni0  1  0.85815612  0.28368776  0.25000000  1
  Ni  Ni1  1  0.14184388  0.71631224  0.75000000  1
