# generated using pymatgen
data_4750_Al2Pd6
_symmetry_space_group_name_H-M   'Cmcm'
_cell_length_a   5.43794989
_cell_length_b   5.43794989
_cell_length_c   4.45121467
_cell_angle_alpha   90.00000000
_cell_angle_beta   90.00000000
_cell_angle_gamma   85.72560389
_chemical_formula_structural   Al2Pd6
_chemical_formula_sum   'Al2 Pd6'
_cell_volume   131.26208120
loop_
 _symmetry_equiv_pos_site_id
 _symmetry_equiv_pos_as_xyz
  1  'x, y, z'
loop_
 _atom_type_symbol
  Al
  Pd
loop_
 _atom_site_type_symbol
 _atom_site_label
 _atom_site_symmetry_multiplicity
 _atom_site_fract_x
 _atom_site_fract_y
 _atom_site_fract_z
 _atom_site_occupancy
  Al  Al0  1  0.39364141  0.60635859  0.25000000  1
  Al  Al1  1  0.60635859  0.39364141  0.75000000  1
  Pd  Pd0  1  0.91962397  0.08037603  0.75000000  1
  Pd  Pd1  1  0.08037603  0.91962397  0.25000000  1
  Pd  Pd2  1  0.15169766  0.51019080  0.75000000  1
  Pd  Pd3  1  0.84830234  0.48980920  0.25000000  1
  Pd  Pd4  1  0.48980920  0.84830234  0.75000000  1
  Pd  Pd5  1  0.51019080  0.15169766  0.25000000  1
