# generated using pymatgen
data_4752_CaAs3
_symmetry_space_group_name_H-M   'Immm'
_cell_length_a   5.66710054
_cell_length_b   5.66710054
_cell_length_c   5.66710054
_cell_angle_alpha   142.18277535
_cell_angle_beta   128.92751850
_cell_angle_gamma   65.27222191
_chemical_formula_structural   CaAs3
_chemical_formula_sum   'As3 Ca1'
_cell_volume   85.64414351
loop_
 _symmetry_equiv_pos_site_id
 _symmetry_equiv_pos_as_xyz
  1  'x, y, z'
loop_
 _atom_type_symbol
  As
  Ca
loop_
 _atom_site_type_symbol
 _atom_site_label
 _atom_site_symmetry_multiplicity
 _atom_site_fract_x
 _atom_site_fract_y
 _atom_site_fract_z
 _atom_site_occupancy
  As  As0  1  0.96450082  0.96450082  1.00000000  1
  As  As1  1  0.75000000  0.25000000  0.50000000  1
  As  As2  1  0.53549918  0.53549918  0.00000000  1
  Ca  Ca0  1  0.25000000  0.75000000  0.50000000  1
