# generated using pymatgen
data_4760_Mn4Ta5
_symmetry_space_group_name_H-M   'I4/mmm'
_cell_length_a   3.15998289
_cell_length_b   6.73532069
_cell_length_c   6.73532069
_cell_angle_alpha   93.15453232
_cell_angle_beta   103.56704086
_cell_angle_gamma   76.43295914
_chemical_formula_structural   Mn4Ta5
_chemical_formula_sum   'Mn4 Ta5'
_cell_volume   135.46268932
loop_
 _symmetry_equiv_pos_site_id
 _symmetry_equiv_pos_as_xyz
  1  'x, y, z'
loop_
 _atom_type_symbol
  Mn
  Ta
loop_
 _atom_site_type_symbol
 _atom_site_label
 _atom_site_symmetry_multiplicity
 _atom_site_fract_x
 _atom_site_fract_y
 _atom_site_fract_z
 _atom_site_occupancy
  Mn  Mn0  1  0.00000000  0.34696505  0.34696505  1
  Mn  Mn1  1  0.00000000  0.65303495  0.65303495  1
  Mn  Mn2  1  0.34696505  0.65303495  0.34696505  1
  Mn  Mn3  1  0.65303495  0.34696505  0.65303495  1
  Ta  Ta0  1  0.00000000  0.00000000  0.00000000  1
  Ta  Ta1  1  0.33131067  1.00000000  0.66262134  1
  Ta  Ta2  1  0.33131067  0.33737866  0.00000000  1
  Ta  Ta3  1  0.66868933  0.66262134  0.00000000  1
  Ta  Ta4  1  0.66868933  0.00000000  0.33737866  1
