# generated using pymatgen
data_4769_Sr2Br6
_symmetry_space_group_name_H-M   'Pmmn'
_cell_length_a   4.59006783
_cell_length_b   10.54064807
_cell_length_c   5.77762377
_cell_angle_alpha   90.00000000
_cell_angle_beta   90.00000000
_cell_angle_gamma   90.00000000
_chemical_formula_structural   Sr2Br6
_chemical_formula_sum   'Br6 Sr2'
_cell_volume   279.53466652
loop_
 _symmetry_equiv_pos_site_id
 _symmetry_equiv_pos_as_xyz
  1  'x, y, z'
loop_
 _atom_type_symbol
  Br
  Sr
loop_
 _atom_site_type_symbol
 _atom_site_label
 _atom_site_symmetry_multiplicity
 _atom_site_fract_x
 _atom_site_fract_y
 _atom_site_fract_z
 _atom_site_occupancy
  Br  Br0  1  0.50000000  0.54076640  0.00000000  1
  Br  Br1  1  0.00000000  0.45923360  0.50000000  1
  Br  Br2  1  0.00000000  0.82480333  0.24856396  1
  Br  Br3  1  0.00000000  0.82480333  0.75143604  1
  Br  Br4  1  0.50000000  0.17519667  0.74856396  1
  Br  Br5  1  0.50000000  0.17519667  0.25143604  1
  Sr  Sr0  1  0.00000000  0.33474496  0.00000000  1
  Sr  Sr1  1  0.50000000  0.66525504  0.50000000  1
