# generated using pymatgen
data_4775_Mo4P8
_symmetry_space_group_name_H-M   'I4_1/amd'
_cell_length_a   14.43740127
_cell_length_b   14.43740127
_cell_length_c   14.43740127
_cell_angle_alpha   166.04575209
_cell_angle_beta   166.04575209
_cell_angle_gamma   19.78368358
_chemical_formula_structural   Mo4P8
_chemical_formula_sum   'Mo4 P8'
_cell_volume   174.97747537
loop_
 _symmetry_equiv_pos_site_id
 _symmetry_equiv_pos_as_xyz
  1  'x, y, z'
loop_
 _atom_type_symbol
  Mo
  P
loop_
 _atom_site_type_symbol
 _atom_site_label
 _atom_site_symmetry_multiplicity
 _atom_site_fract_x
 _atom_site_fract_y
 _atom_site_fract_z
 _atom_site_occupancy
  Mo  Mo0  1  0.91607179  0.91607180  0.00000000  1
  Mo  Mo1  1  0.08392821  0.08392820  0.00000000  1
  Mo  Mo2  1  0.16607179  0.66607180  0.50000000  1
  Mo  Mo3  1  0.33392821  0.83392820  0.50000000  1
  P  P0  1  0.74485067  0.74485067  0.00000000  1
  P  P1  1  0.25514933  0.25514933  0.00000000  1
  P  P2  1  0.99485067  0.49485067  0.50000000  1
  P  P3  1  0.50514933  0.00514933  0.50000000  1
  P  P4  1  0.59573644  0.59573645  0.00000000  1
  P  P5  1  0.40426356  0.40426355  0.00000000  1
  P  P6  1  0.84573644  0.34573645  0.50000000  1
  P  P7  1  0.65426356  0.15426355  0.50000000  1
