# generated using pymatgen
data_4776_Ni2Ge6
_symmetry_space_group_name_H-M   'Pmmn'
_cell_length_a   4.54193938
_cell_length_b   3.92042667
_cell_length_c   8.26494600
_cell_angle_alpha   90.00000000
_cell_angle_beta   90.00000000
_cell_angle_gamma   90.00000000
_chemical_formula_structural   Ni2Ge6
_chemical_formula_sum   'Ge6 Ni2'
_cell_volume   147.16844086
loop_
 _symmetry_equiv_pos_site_id
 _symmetry_equiv_pos_as_xyz
  1  'x, y, z'
loop_
 _atom_type_symbol
  Ge
  Ni
loop_
 _atom_site_type_symbol
 _atom_site_label
 _atom_site_symmetry_multiplicity
 _atom_site_fract_x
 _atom_site_fract_y
 _atom_site_fract_z
 _atom_site_occupancy
  Ge  Ge0  1  0.50000000  0.42937477  0.00000000  1
  Ge  Ge1  1  0.00000000  0.57062523  0.50000000  1
  Ge  Ge2  1  0.00000000  0.95035255  0.17315252  1
  Ge  Ge3  1  0.00000000  0.95035255  0.82684748  1
  Ge  Ge4  1  0.50000000  0.04964745  0.67315252  1
  Ge  Ge5  1  0.50000000  0.04964745  0.32684748  1
  Ni  Ni0  1  0.00000000  0.46031500  0.00000000  1
  Ni  Ni1  1  0.50000000  0.53968500  0.50000000  1
