# generated using pymatgen
data_4779_MoW
_symmetry_space_group_name_H-M   'P-6m2'
_cell_length_a   2.77179451
_cell_length_b   2.77161478
_cell_length_c   4.89466087
_cell_angle_alpha   90.00000000
_cell_angle_beta   90.00000000
_cell_angle_gamma   120.00214497
_chemical_formula_structural   MoW
_chemical_formula_sum   'Mo1 W1'
_cell_volume   32.56400033
loop_
 _symmetry_equiv_pos_site_id
 _symmetry_equiv_pos_as_xyz
  1  'x, y, z'
loop_
 _atom_type_symbol
  Mo
  W
loop_
 _atom_site_type_symbol
 _atom_site_label
 _atom_site_symmetry_multiplicity
 _atom_site_fract_x
 _atom_site_fract_y
 _atom_site_fract_z
 _atom_site_occupancy
  Mo  Mo0  1  0.66666976  0.33333852  0.75000000  1
  W  W0  1  0.33333024  0.66666148  0.25000000  1
