# generated using pymatgen
data_4780_Pb4P
_symmetry_space_group_name_H-M   'I4/mmm'
_cell_length_a   8.91097323
_cell_length_b   8.91097323
_cell_length_c   8.91097323
_cell_angle_alpha   152.11256324
_cell_angle_beta   152.11256324
_cell_angle_gamma   39.84894546
_chemical_formula_structural   Pb4P
_chemical_formula_sum   'P1 Pb4'
_cell_volume   154.50775537
loop_
 _symmetry_equiv_pos_site_id
 _symmetry_equiv_pos_as_xyz
  1  'x, y, z'
loop_
 _atom_type_symbol
  P
  Pb
loop_
 _atom_site_type_symbol
 _atom_site_label
 _atom_site_symmetry_multiplicity
 _atom_site_fract_x
 _atom_site_fract_y
 _atom_site_fract_z
 _atom_site_occupancy
  P  P0  1  0.00000000  0.00000000  0.00000000  1
  Pb  Pb0  1  0.25000000  0.75000000  0.50000000  1
  Pb  Pb1  1  0.75000000  0.25000000  0.50000000  1
  Pb  Pb2  1  0.58938191  0.58938191  0.00000000  1
  Pb  Pb3  1  0.41061809  0.41061809  0.00000000  1
