# generated using pymatgen
data_4785_Mo2Nb
_symmetry_space_group_name_H-M   'Fmmm'
_cell_length_a   7.13204793
_cell_length_b   6.94305298
_cell_length_c   2.79099491
_cell_angle_alpha   82.37800163
_cell_angle_beta   74.77989849
_cell_angle_gamma   22.82373839
_chemical_formula_structural   Mo2Nb
_chemical_formula_sum   'Mo2 Nb1'
_cell_volume   49.47277469
loop_
 _symmetry_equiv_pos_site_id
 _symmetry_equiv_pos_as_xyz
  1  'x, y, z'
loop_
 _atom_type_symbol
  Mo
  Nb
loop_
 _atom_site_type_symbol
 _atom_site_label
 _atom_site_symmetry_multiplicity
 _atom_site_fract_x
 _atom_site_fract_y
 _atom_site_fract_z
 _atom_site_occupancy
  Mo  Mo0  1  0.00272049  0.00276538  0.99730160  1
  Mo  Mo1  1  0.66394618  0.66390128  0.33603173  1
  Nb  Nb0  1  0.33333333  0.33333333  0.66666667  1
