# generated using pymatgen
data_4792_Ni2Yb2
_symmetry_space_group_name_H-M   'Pmma'
_cell_length_a   4.65457800
_cell_length_b   3.36299500
_cell_length_c   4.71287500
_cell_angle_alpha   90.00000000
_cell_angle_beta   90.00000000
_cell_angle_gamma   90.00000000
_chemical_formula_structural   Ni2Yb2
_chemical_formula_sum   'Ni2 Yb2'
_cell_volume   73.77215247
loop_
 _symmetry_equiv_pos_site_id
 _symmetry_equiv_pos_as_xyz
  1  'x, y, z'
loop_
 _atom_type_symbol
  Ni
  Yb
loop_
 _atom_site_type_symbol
 _atom_site_label
 _atom_site_symmetry_multiplicity
 _atom_site_fract_x
 _atom_site_fract_y
 _atom_site_fract_z
 _atom_site_occupancy
  Ni  Ni0  1  0.25000116  0.00000000  0.20466912  1
  Ni  Ni1  1  0.74999918  0.00000000  0.79533190  1
  Yb  Yb0  1  0.74999918  0.50000082  0.26773677  1
  Yb  Yb1  1  0.25000116  0.50000082  0.73226212  1
