# generated using pymatgen
data_4800_Nb3Br5
_symmetry_space_group_name_H-M   'Cmmm'
_cell_length_a   7.91940739
_cell_length_b   7.91940739
_cell_length_c   3.43070365
_cell_angle_alpha   90.00000000
_cell_angle_beta   90.00000000
_cell_angle_gamma   110.04114950
_chemical_formula_structural   Nb3Br5
_chemical_formula_sum   'Br5 Nb3'
_cell_volume   202.13463645
loop_
 _symmetry_equiv_pos_site_id
 _symmetry_equiv_pos_as_xyz
  1  'x, y, z'
loop_
 _atom_type_symbol
  Br
  Nb
loop_
 _atom_site_type_symbol
 _atom_site_label
 _atom_site_symmetry_multiplicity
 _atom_site_fract_x
 _atom_site_fract_y
 _atom_site_fract_z
 _atom_site_occupancy
  Br  Br0  1  0.00000000  0.00000000  0.00000000  1
  Br  Br1  1  0.00000000  0.50000000  0.00000000  1
  Br  Br2  1  0.50000000  1.00000000  0.00000000  1
  Br  Br3  1  0.28277649  0.28277649  0.50000000  1
  Br  Br4  1  0.71722351  0.71722351  0.50000000  1
  Nb  Nb0  1  0.50000000  0.50000000  0.00000000  1
  Nb  Nb1  1  0.66282154  0.33717846  0.50000000  1
  Nb  Nb2  1  0.33717846  0.66282154  0.50000000  1
