# generated using pymatgen
data_4801_Ir2Rh4
_symmetry_space_group_name_H-M   'I4_1/amd'
_cell_length_a   11.53786138
_cell_length_b   11.53786138
_cell_length_c   11.53786138
_cell_angle_alpha   166.18947491
_cell_angle_beta   166.18947491
_cell_angle_gamma   19.57890559
_chemical_formula_structural   Ir2Rh4
_chemical_formula_sum   'Ir2 Rh4'
_cell_volume   87.51392972
loop_
 _symmetry_equiv_pos_site_id
 _symmetry_equiv_pos_as_xyz
  1  'x, y, z'
loop_
 _atom_type_symbol
  Ir
  Rh
loop_
 _atom_site_type_symbol
 _atom_site_label
 _atom_site_symmetry_multiplicity
 _atom_site_fract_x
 _atom_site_fract_y
 _atom_site_fract_z
 _atom_site_occupancy
  Ir  Ir0  1  0.00000000  0.00000000  0.00000000  1
  Ir  Ir1  1  0.75000000  0.25000000  0.50000000  1
  Rh  Rh0  1  0.17225903  0.67225903  0.50000000  1
  Rh  Rh1  1  0.32774097  0.82774097  0.50000000  1
  Rh  Rh2  1  0.42225903  0.42225903  0.00000000  1
  Rh  Rh3  1  0.57774097  0.57774097  0.00000000  1
