# generated using pymatgen
data_4814_Pd4V4
_symmetry_space_group_name_H-M   'Pnma'
_cell_length_a   4.80228248
_cell_length_b   4.32458924
_cell_length_c   5.52843824
_cell_angle_alpha   90.00000000
_cell_angle_beta   90.00000000
_cell_angle_gamma   90.00000000
_chemical_formula_structural   Pd4V4
_chemical_formula_sum   'Pd4 V4'
_cell_volume   114.81404777
loop_
 _symmetry_equiv_pos_site_id
 _symmetry_equiv_pos_as_xyz
  1  'x, y, z'
loop_
 _atom_type_symbol
  Pd
  V
loop_
 _atom_site_type_symbol
 _atom_site_label
 _atom_site_symmetry_multiplicity
 _atom_site_fract_x
 _atom_site_fract_y
 _atom_site_fract_z
 _atom_site_occupancy
  Pd  Pd0  1  0.08572258  0.25000000  0.12606372  1
  Pd  Pd1  1  0.41427742  0.75000000  0.62606372  1
  Pd  Pd2  1  0.58572258  0.25000000  0.37393628  1
  Pd  Pd3  1  0.91427742  0.75000000  0.87393628  1
  V  V0  1  0.08241913  0.25000000  0.62681069  1
  V  V1  1  0.41758087  0.75000000  0.12681069  1
  V  V2  1  0.58241913  0.25000000  0.87318931  1
  V  V3  1  0.91758087  0.75000000  0.37318931  1
