# generated using pymatgen
data_4815_Nb4Ni2
_symmetry_space_group_name_H-M   'I4/mcm'
_cell_length_a   4.86615514
_cell_length_b   5.03055473
_cell_length_c   5.03055473
_cell_angle_alpha   103.52837529
_cell_angle_beta   118.92470962
_cell_angle_gamma   61.07529038
_chemical_formula_structural   Nb4Ni2
_chemical_formula_sum   'Nb4 Ni2'
_cell_volume   94.33827326
loop_
 _symmetry_equiv_pos_site_id
 _symmetry_equiv_pos_as_xyz
  1  'x, y, z'
loop_
 _atom_type_symbol
  Nb
  Ni
loop_
 _atom_site_type_symbol
 _atom_site_label
 _atom_site_symmetry_multiplicity
 _atom_site_fract_x
 _atom_site_fract_y
 _atom_site_fract_z
 _atom_site_occupancy
  Nb  Nb0  1  0.15758381  0.18483238  0.50000000  1
  Nb  Nb1  1  0.34241619  0.50000000  0.18483238  1
  Nb  Nb2  1  0.65758381  0.50000000  0.81516762  1
  Nb  Nb3  1  0.84241619  0.81516762  0.50000000  1
  Ni  Ni0  1  0.25000000  0.00000000  0.00000000  1
  Ni  Ni1  1  0.75000000  0.00000000  0.00000000  1
