# generated using pymatgen
data_4816_Ba2Sb2
_symmetry_space_group_name_H-M   'Cmcm'
_cell_length_a   6.78605682
_cell_length_b   6.78605682
_cell_length_c   5.12958780
_cell_angle_alpha   90.00000000
_cell_angle_beta   90.00000000
_cell_angle_gamma   136.34996141
_chemical_formula_structural   Ba2Sb2
_chemical_formula_sum   'Ba2 Sb2'
_cell_volume   163.05155833
loop_
 _symmetry_equiv_pos_site_id
 _symmetry_equiv_pos_as_xyz
  1  'x, y, z'
loop_
 _atom_type_symbol
  Ba
  Sb
loop_
 _atom_site_type_symbol
 _atom_site_label
 _atom_site_symmetry_multiplicity
 _atom_site_fract_x
 _atom_site_fract_y
 _atom_site_fract_z
 _atom_site_occupancy
  Ba  Ba0  1  0.86607239  0.13392761  0.75000000  1
  Ba  Ba1  1  0.13392761  0.86607239  0.25000000  1
  Sb  Sb0  1  0.57630527  0.42369473  0.75000000  1
  Sb  Sb1  1  0.42369473  0.57630527  0.25000000  1
