# generated using pymatgen
data_481_RbW
_symmetry_space_group_name_H-M   'P4/mmm'
_cell_length_a   2.80932676
_cell_length_b   3.97298800
_cell_length_c   6.33995200
_cell_angle_alpha   90.00000000
_cell_angle_beta   90.00000000
_cell_angle_gamma   45.00000000
_chemical_formula_structural   RbW
_chemical_formula_sum   'Rb1 W1'
_cell_volume   50.03690983
loop_
 _symmetry_equiv_pos_site_id
 _symmetry_equiv_pos_as_xyz
  1  'x, y, z'
loop_
 _atom_type_symbol
  Rb
  W
loop_
 _atom_site_type_symbol
 _atom_site_label
 _atom_site_symmetry_multiplicity
 _atom_site_fract_x
 _atom_site_fract_y
 _atom_site_fract_z
 _atom_site_occupancy
  Rb  Rb0  1  0.00000000  0.00000000  0.00000000  1
  W  W0  1  0.00000000  0.49999898  0.50000061  1
