# generated using pymatgen
data_4826_Au2V2
_symmetry_space_group_name_H-M   'P4/nmm'
_cell_length_a   2.74391778
_cell_length_b   2.74391778
_cell_length_c   8.40349087
_cell_angle_alpha   90.00000000
_cell_angle_beta   90.00000000
_cell_angle_gamma   90.00000000
_chemical_formula_structural   Au2V2
_chemical_formula_sum   'Au2 V2'
_cell_volume   63.27059524
loop_
 _symmetry_equiv_pos_site_id
 _symmetry_equiv_pos_as_xyz
  1  'x, y, z'
loop_
 _atom_type_symbol
  Au
  V
loop_
 _atom_site_type_symbol
 _atom_site_label
 _atom_site_symmetry_multiplicity
 _atom_site_fract_x
 _atom_site_fract_y
 _atom_site_fract_z
 _atom_site_occupancy
  Au  Au0  1  0.25000000  0.25000000  0.64378009  1
  Au  Au1  1  0.75000000  0.75000000  0.35621991  1
  V  V0  1  0.25000000  0.25000000  0.11624240  1
  V  V1  1  0.75000000  0.75000000  0.88375760  1
