# generated using pymatgen
data_4829_Fe2Ta6
_symmetry_space_group_name_H-M   'P6_3/mmc'
_cell_length_a   5.60698041
_cell_length_b   5.60698068
_cell_length_c   4.85704212
_cell_angle_alpha   90.00000000
_cell_angle_beta   90.00000000
_cell_angle_gamma   119.99999848
_chemical_formula_structural   Fe2Ta6
_chemical_formula_sum   'Fe2 Ta6'
_cell_volume   132.23931967
loop_
 _symmetry_equiv_pos_site_id
 _symmetry_equiv_pos_as_xyz
  1  'x, y, z'
loop_
 _atom_type_symbol
  Fe
  Ta
loop_
 _atom_site_type_symbol
 _atom_site_label
 _atom_site_symmetry_multiplicity
 _atom_site_fract_x
 _atom_site_fract_y
 _atom_site_fract_z
 _atom_site_occupancy
  Fe  Fe0  1  0.66666700  0.33333300  0.25000000  1
  Fe  Fe1  1  0.33333300  0.66666700  0.75000000  1
  Ta  Ta0  1  0.17117833  0.34235665  0.25000000  1
  Ta  Ta1  1  0.17117833  0.82882167  0.25000000  1
  Ta  Ta2  1  0.65764335  0.82882167  0.25000000  1
  Ta  Ta3  1  0.34235665  0.17117833  0.75000000  1
  Ta  Ta4  1  0.82882167  0.17117833  0.75000000  1
  Ta  Ta5  1  0.82882167  0.65764335  0.75000000  1
