# generated using pymatgen
data_4830_Fe2As
_symmetry_space_group_name_H-M   'I4/mmm'
_cell_length_a   4.44372322
_cell_length_b   4.44372322
_cell_length_c   6.31828605
_cell_angle_alpha   69.20731183
_cell_angle_beta   69.20731183
_cell_angle_gamma   41.67213893
_chemical_formula_structural   Fe2As
_chemical_formula_sum   'As2 Fe4'
_cell_volume   76.73558733
loop_
 _symmetry_equiv_pos_site_id
 _symmetry_equiv_pos_as_xyz
  1  'x, y, z'
loop_
 _atom_type_symbol
  As
  Fe
loop_
 _atom_site_type_symbol
 _atom_site_label
 _atom_site_symmetry_multiplicity
 _atom_site_fract_x
 _atom_site_fract_y
 _atom_site_fract_z
 _atom_site_occupancy
  As  As0  1  0.63907166  0.63907166  0.72210119  1
  As  As1  1  0.63870612  0.63870612  0.22234325  1
  Fe  Fe0  1  0.96995044  0.96995044  0.05629341  1
  Fe  Fe1  1  0.30792762  0.30792762  0.38765320  1
  Fe  Fe2  1  0.96985016  0.96985016  0.55679124  1
  Fe  Fe3  1  0.30782734  0.30782734  0.88815103  1
