# generated using pymatgen
data_4837_Ag6Fe2
_symmetry_space_group_name_H-M   'P6_3/mmc'
_cell_length_a   5.74663190
_cell_length_b   5.74663240
_cell_length_c   4.62600324
_cell_angle_alpha   90.00000000
_cell_angle_beta   90.00000000
_cell_angle_gamma   120.00000307
_chemical_formula_structural   Ag6Fe2
_chemical_formula_sum   'Ag6 Fe2'
_cell_volume   132.30106729
loop_
 _symmetry_equiv_pos_site_id
 _symmetry_equiv_pos_as_xyz
  1  'x, y, z'
loop_
 _atom_type_symbol
  Ag
  Fe
loop_
 _atom_site_type_symbol
 _atom_site_label
 _atom_site_symmetry_multiplicity
 _atom_site_fract_x
 _atom_site_fract_y
 _atom_site_fract_z
 _atom_site_occupancy
  Ag  Ag0  1  0.16947112  0.33894224  0.25000000  1
  Ag  Ag1  1  0.16947112  0.83052888  0.25000000  1
  Ag  Ag2  1  0.66105776  0.83052888  0.25000000  1
  Ag  Ag3  1  0.33894224  0.16947112  0.75000000  1
  Ag  Ag4  1  0.83052888  0.16947112  0.75000000  1
  Ag  Ag5  1  0.83052888  0.66105776  0.75000000  1
  Fe  Fe0  1  0.66666700  0.33333300  0.25000000  1
  Fe  Fe1  1  0.33333300  0.66666700  0.75000000  1
