# generated using pymatgen
data_4841_Mo2Sr2
_symmetry_space_group_name_H-M   'Imma'
_cell_length_a   6.43070387
_cell_length_b   6.43070387
_cell_length_c   6.43070387
_cell_angle_alpha   147.77903470
_cell_angle_beta   126.60651982
_cell_angle_gamma   63.74836084
_chemical_formula_structural   Mo2Sr2
_chemical_formula_sum   'Mo2 Sr2'
_cell_volume   112.61705008
loop_
 _symmetry_equiv_pos_site_id
 _symmetry_equiv_pos_as_xyz
  1  'x, y, z'
loop_
 _atom_type_symbol
  Mo
  Sr
loop_
 _atom_site_type_symbol
 _atom_site_label
 _atom_site_symmetry_multiplicity
 _atom_site_fract_x
 _atom_site_fract_y
 _atom_site_fract_z
 _atom_site_occupancy
  Mo  Mo0  1  0.94726626  0.94726626  0.00000000  1
  Mo  Mo1  1  0.80273374  0.30273374  0.50000000  1
  Sr  Sr0  1  0.52370344  0.52370344  1.00000000  1
  Sr  Sr1  1  0.22629656  0.72629656  0.50000000  1
