# generated using pymatgen
data_4848_AgSn8
_symmetry_space_group_name_H-M   'I4/mmm'
_cell_length_a   7.52472601
_cell_length_b   7.52472601
_cell_length_c   7.52472601
_cell_angle_alpha   95.64471782
_cell_angle_beta   95.64471782
_cell_angle_gamma   143.44454422
_chemical_formula_structural   AgSn8
_chemical_formula_sum   'Ag1 Sn8'
_cell_volume   240.95938184
loop_
 _symmetry_equiv_pos_site_id
 _symmetry_equiv_pos_as_xyz
  1  'x, y, z'
loop_
 _atom_type_symbol
  Ag
  Sn
loop_
 _atom_site_type_symbol
 _atom_site_label
 _atom_site_symmetry_multiplicity
 _atom_site_fract_x
 _atom_site_fract_y
 _atom_site_fract_z
 _atom_site_occupancy
  Ag  Ag0  1  0.00000000  0.00000000  0.00000000  1
  Sn  Sn0  1  0.33848991  0.66151009  0.00000000  1
  Sn  Sn1  1  0.66151009  0.33848991  0.00000000  1
  Sn  Sn2  1  1.00000000  0.32782774  0.32782774  1
  Sn  Sn3  1  0.66151009  0.66151009  0.32302018  1
  Sn  Sn4  1  0.32782774  0.00000000  0.32782774  1
  Sn  Sn5  1  0.33848991  0.33848991  0.67697982  1
  Sn  Sn6  1  1.00000000  0.67217226  0.67217226  1
  Sn  Sn7  1  0.67217226  0.00000000  0.67217226  1
