# generated using pymatgen
data_4850_Mn3Pd
_symmetry_space_group_name_H-M   'Pmm2'
_cell_length_a   2.58976860
_cell_length_b   4.06817724
_cell_length_c   4.51570574
_cell_angle_alpha   90.00000000
_cell_angle_beta   90.00000000
_cell_angle_gamma   90.00000000
_chemical_formula_structural   Mn3Pd
_chemical_formula_sum   'Mn3 Pd1'
_cell_volume   47.57583953
loop_
 _symmetry_equiv_pos_site_id
 _symmetry_equiv_pos_as_xyz
  1  'x, y, z'
loop_
 _atom_type_symbol
  Mn
  Pd
loop_
 _atom_site_type_symbol
 _atom_site_label
 _atom_site_symmetry_multiplicity
 _atom_site_fract_x
 _atom_site_fract_y
 _atom_site_fract_z
 _atom_site_occupancy
  Mn  Mn0  1  0.00000000  0.00000000  0.98243887  1
  Mn  Mn1  1  0.50000000  0.00000000  0.52820231  1
  Mn  Mn2  1  0.50000000  0.50000000  0.82531742  1
  Pd  Pd0  1  0.00000000  0.50000000  0.33070806  1
