# generated using pymatgen
data_4854_Ag4Pt7
_symmetry_space_group_name_H-M   'P-1'
_cell_length_a   7.52966298
_cell_length_b   4.96458957
_cell_length_c   4.89677458
_cell_angle_alpha   99.86265274
_cell_angle_beta   96.23133974
_cell_angle_gamma   89.79562682
_chemical_formula_structural   Ag4Pt7
_chemical_formula_sum   'Ag4 Pt7'
_cell_volume   179.25781472
loop_
 _symmetry_equiv_pos_site_id
 _symmetry_equiv_pos_as_xyz
  1  'x, y, z'
loop_
 _atom_type_symbol
  Ag
  Pt
loop_
 _atom_site_type_symbol
 _atom_site_label
 _atom_site_symmetry_multiplicity
 _atom_site_fract_x
 _atom_site_fract_y
 _atom_site_fract_z
 _atom_site_occupancy
  Ag  Ag0  1  0.99689766  0.99923027  0.00217581  1
  Ag  Ag1  1  0.81307347  0.91141993  0.45624242  1
  Ag  Ag2  1  0.55056289  0.27039825  0.63466667  1
  Ag  Ag3  1  0.36673870  0.18258791  0.08873328  1
  Pt  Pt0  1  0.91708487  0.45749020  0.73029026  1
  Pt  Pt1  1  0.73645725  0.37484744  0.17908651  1
  Pt  Pt2  1  0.62717911  0.80697074  0.91182258  1
  Pt  Pt3  1  0.44655150  0.72432798  0.36061883  1
  Pt  Pt4  1  0.27021013  0.63477533  0.80980418  1
  Pt  Pt5  1  0.18181818  0.09090909  0.54545455  1
  Pt  Pt6  1  0.09342623  0.54704286  0.28110491  1
