# generated using pymatgen
data_4855_K3P4
_symmetry_space_group_name_H-M   'I4/mmm'
_cell_length_a   15.80285356
_cell_length_b   15.80285356
_cell_length_c   15.80285356
_cell_angle_alpha   167.79196145
_cell_angle_beta   167.79196145
_cell_angle_gamma   17.29775090
_chemical_formula_structural   K3P4
_chemical_formula_sum   'K3 P4'
_cell_volume   176.45846932
loop_
 _symmetry_equiv_pos_site_id
 _symmetry_equiv_pos_as_xyz
  1  'x, y, z'
loop_
 _atom_type_symbol
  K
  P
loop_
 _atom_site_type_symbol
 _atom_site_label
 _atom_site_symmetry_multiplicity
 _atom_site_fract_x
 _atom_site_fract_y
 _atom_site_fract_z
 _atom_site_occupancy
  K  K0  1  0.00000000  0.00000000  0.00000000  1
  K  K1  1  0.68112690  0.68112690  0.00000000  1
  K  K2  1  0.31887310  0.31887310  0.00000000  1
  P  P0  1  0.89581075  0.89581075  0.00000000  1
  P  P1  1  0.10418925  0.10418925  0.00000000  1
  P  P2  1  0.58003602  0.58003602  0.00000000  1
  P  P3  1  0.41996398  0.41996398  0.00000000  1
