# generated using pymatgen
data_4866_Pt2V2
_symmetry_space_group_name_H-M   'Cmcm'
_cell_length_a   2.70417369
_cell_length_b   4.35523001
_cell_length_c   5.20180650
_cell_angle_alpha   90.00000000
_cell_angle_beta   105.06569505
_cell_angle_gamma   90.00000000
_chemical_formula_structural   Pt2V2
_chemical_formula_sum   'Pt2 V2'
_cell_volume   59.15751417
loop_
 _symmetry_equiv_pos_site_id
 _symmetry_equiv_pos_as_xyz
  1  'x, y, z'
loop_
 _atom_type_symbol
  Pt
  V
loop_
 _atom_site_type_symbol
 _atom_site_label
 _atom_site_symmetry_multiplicity
 _atom_site_fract_x
 _atom_site_fract_y
 _atom_site_fract_z
 _atom_site_occupancy
  Pt  Pt0  1  0.91521738  0.25000000  0.83043476  1
  Pt  Pt1  1  0.08478262  0.75000000  0.16956524  1
  V  V0  1  0.65764274  0.25000000  0.31528548  1
  V  V1  1  0.34235726  0.75000000  0.68471452  1
