# generated using pymatgen
data_4872_K6Ge18
_symmetry_space_group_name_H-M   'Pmmn'
_cell_length_a   7.05858980
_cell_length_b   6.84214690
_cell_length_c   14.69539531
_cell_angle_alpha   90.00000000
_cell_angle_beta   90.00000000
_cell_angle_gamma   90.00000000
_chemical_formula_structural   K6Ge18
_chemical_formula_sum   'Ge18 K6'
_cell_volume   709.72746460
loop_
 _symmetry_equiv_pos_site_id
 _symmetry_equiv_pos_as_xyz
  1  'x, y, z'
loop_
 _atom_type_symbol
  Ge
  K
loop_
 _atom_site_type_symbol
 _atom_site_label
 _atom_site_symmetry_multiplicity
 _atom_site_fract_x
 _atom_site_fract_y
 _atom_site_fract_z
 _atom_site_occupancy
  Ge  Ge0  1  0.21539808  0.04590376  0.37832406  1
  Ge  Ge1  1  0.21539808  0.04590376  0.12167594  1
  Ge  Ge2  1  0.56573217  0.06763188  0.75000000  1
  Ge  Ge3  1  0.43426783  0.93236812  0.25000000  1
  Ge  Ge4  1  0.78460192  0.95409624  0.87832406  1
  Ge  Ge5  1  0.78460192  0.95409624  0.62167594  1
  Ge  Ge6  1  0.04552858  0.25000000  0.25000000  1
  Ge  Ge7  1  0.27609620  0.25000000  0.98600663  1
  Ge  Ge8  1  0.27609620  0.25000000  0.51399337  1
  Ge  Ge9  1  0.21539808  0.45409624  0.37832406  1
  Ge  Ge10  1  0.21539808  0.45409624  0.12167594  1
  Ge  Ge11  1  0.56573217  0.43236812  0.75000000  1
  Ge  Ge12  1  0.43426783  0.56763188  0.25000000  1
  Ge  Ge13  1  0.78460192  0.54590376  0.87832406  1
  Ge  Ge14  1  0.78460192  0.54590376  0.62167594  1
  Ge  Ge15  1  0.95447142  0.75000000  0.75000000  1
  Ge  Ge16  1  0.72390380  0.75000000  0.48600663  1
  Ge  Ge17  1  0.72390380  0.75000000  0.01399337  1
  K  K0  1  0.09438081  0.25000000  0.75000000  1
  K  K1  1  0.71465839  0.25000000  0.41519861  1
  K  K2  1  0.71465839  0.25000000  0.08480139  1
  K  K3  1  0.90561919  0.75000000  0.25000000  1
  K  K4  1  0.28534161  0.75000000  0.91519861  1
  K  K5  1  0.28534161  0.75000000  0.58480139  1
