# generated using pymatgen
data_4873_Ba4V2
_symmetry_space_group_name_H-M   'C2/m'
_cell_length_a   8.20941680
_cell_length_b   8.20941680
_cell_length_c   8.26249542
_cell_angle_alpha   75.29600638
_cell_angle_beta   75.29600638
_cell_angle_gamma   28.96213108
_chemical_formula_structural   Ba4V2
_chemical_formula_sum   'Ba4 V2'
_cell_volume   260.21233596
loop_
 _symmetry_equiv_pos_site_id
 _symmetry_equiv_pos_as_xyz
  1  'x, y, z'
loop_
 _atom_type_symbol
  Ba
  V
loop_
 _atom_site_type_symbol
 _atom_site_label
 _atom_site_symmetry_multiplicity
 _atom_site_fract_x
 _atom_site_fract_y
 _atom_site_fract_z
 _atom_site_occupancy
  Ba  Ba0  1  0.94114260  0.94114260  0.07049410  1
  Ba  Ba1  1  0.67238770  0.67238770  0.70416137  1
  Ba  Ba2  1  0.66996851  0.66996851  0.20728368  1
  Ba  Ba3  1  0.93872342  0.93872342  0.57361641  1
  V  V0  1  0.30641364  0.30641364  0.38292958  1
  V  V1  1  0.30469747  0.30469747  0.89484820  1
