# generated using pymatgen
data_4876_GeAs
_symmetry_space_group_name_H-M   'P-6m2'
_cell_length_a   2.95992249
_cell_length_b   2.95978802
_cell_length_c   5.12437458
_cell_angle_alpha   90.00000000
_cell_angle_beta   90.00000000
_cell_angle_gamma   120.00150304
_chemical_formula_structural   GeAs
_chemical_formula_sum   'As1 Ge1'
_cell_volume   38.87817481
loop_
 _symmetry_equiv_pos_site_id
 _symmetry_equiv_pos_as_xyz
  1  'x, y, z'
loop_
 _atom_type_symbol
  As
  Ge
loop_
 _atom_site_type_symbol
 _atom_site_label
 _atom_site_symmetry_multiplicity
 _atom_site_fract_x
 _atom_site_fract_y
 _atom_site_fract_z
 _atom_site_occupancy
  As  As0  1  0.66666880  0.33333466  0.75000016  1
  Ge  Ge0  1  0.33333436  0.66666851  0.24999941  1
