# generated using pymatgen
data_4877_Al2Ni2
_symmetry_space_group_name_H-M   'Pmmn'
_cell_length_a   2.69329296
_cell_length_b   4.39707449
_cell_length_c   4.22105527
_cell_angle_alpha   90.00000000
_cell_angle_beta   90.00000000
_cell_angle_gamma   90.00000000
_chemical_formula_structural   Al2Ni2
_chemical_formula_sum   'Al2 Ni2'
_cell_volume   49.98831037
loop_
 _symmetry_equiv_pos_site_id
 _symmetry_equiv_pos_as_xyz
  1  'x, y, z'
loop_
 _atom_type_symbol
  Al
  Ni
loop_
 _atom_site_type_symbol
 _atom_site_label
 _atom_site_symmetry_multiplicity
 _atom_site_fract_x
 _atom_site_fract_y
 _atom_site_fract_z
 _atom_site_occupancy
  Al  Al0  1  0.00000000  0.00000000  0.03244104  1
  Al  Al1  1  0.50000000  0.50000000  0.80089230  1
  Ni  Ni0  1  0.50000000  0.00000000  0.52447022  1
  Ni  Ni1  1  0.00000000  0.50000000  0.30886311  1
