# generated using pymatgen
data_4880_AlBa3
_symmetry_space_group_name_H-M   'I4/mmm'
_cell_length_a   6.64780083
_cell_length_b   6.64780083
_cell_length_c   6.64780083
_cell_angle_alpha   129.48700455
_cell_angle_beta   129.48700455
_cell_angle_gamma   74.22821481
_chemical_formula_structural   AlBa3
_chemical_formula_sum   'Al1 Ba3'
_cell_volume   170.59895676
loop_
 _symmetry_equiv_pos_site_id
 _symmetry_equiv_pos_as_xyz
  1  'x, y, z'
loop_
 _atom_type_symbol
  Al
  Ba
loop_
 _atom_site_type_symbol
 _atom_site_label
 _atom_site_symmetry_multiplicity
 _atom_site_fract_x
 _atom_site_fract_y
 _atom_site_fract_z
 _atom_site_occupancy
  Al  Al0  1  0.00000000  0.00000000  0.00000000  1
  Ba  Ba0  1  0.25000000  0.75000000  0.50000000  1
  Ba  Ba1  1  0.50000000  0.50000000  0.00000000  1
  Ba  Ba2  1  0.75000000  0.25000000  0.50000000  1
