# generated using pymatgen
data_4882_Cu4Ge4
_symmetry_space_group_name_H-M   'Pnma'
_cell_length_a   2.79156861
_cell_length_b   5.76183081
_cell_length_c   7.54136131
_cell_angle_alpha   90.00000000
_cell_angle_beta   90.00000000
_cell_angle_gamma   90.00000000
_chemical_formula_structural   Cu4Ge4
_chemical_formula_sum   'Cu4 Ge4'
_cell_volume   121.29937308
loop_
 _symmetry_equiv_pos_site_id
 _symmetry_equiv_pos_as_xyz
  1  'x, y, z'
loop_
 _atom_type_symbol
  Cu
  Ge
loop_
 _atom_site_type_symbol
 _atom_site_label
 _atom_site_symmetry_multiplicity
 _atom_site_fract_x
 _atom_site_fract_y
 _atom_site_fract_z
 _atom_site_occupancy
  Cu  Cu0  1  0.25000000  0.18149724  0.47350216  1
  Cu  Cu1  1  0.75000000  0.31850276  0.97350216  1
  Cu  Cu2  1  0.75000000  0.81850276  0.52649784  1
  Cu  Cu3  1  0.25000000  0.68149724  0.02649784  1
  Ge  Ge0  1  0.25000000  0.01375213  0.79283152  1
  Ge  Ge1  1  0.75000000  0.48624787  0.29283152  1
  Ge  Ge2  1  0.75000000  0.98624787  0.20716848  1
  Ge  Ge3  1  0.25000000  0.51375213  0.70716848  1
