# generated using pymatgen
data_4888_Pt4Rb16
_symmetry_space_group_name_H-M   'I-43m'
_cell_length_a   11.91476509
_cell_length_b   11.91476509
_cell_length_c   11.91476509
_cell_angle_alpha   109.47122063
_cell_angle_beta   109.47122063
_cell_angle_gamma   109.47122063
_chemical_formula_structural   Pt4Rb16
_chemical_formula_sum   'Pt4 Rb16'
_cell_volume   1302.07068629
loop_
 _symmetry_equiv_pos_site_id
 _symmetry_equiv_pos_as_xyz
  1  'x, y, z'
loop_
 _atom_type_symbol
  Pt
  Rb
loop_
 _atom_site_type_symbol
 _atom_site_label
 _atom_site_symmetry_multiplicity
 _atom_site_fract_x
 _atom_site_fract_y
 _atom_site_fract_z
 _atom_site_occupancy
  Pt  Pt0  1  0.29468327  0.29468327  0.29468327  1
  Pt  Pt1  1  0.70531673  0.00000000  0.00000000  1
  Pt  Pt2  1  1.00000000  0.70531673  0.00000000  1
  Pt  Pt3  1  1.00000000  0.00000000  0.70531673  1
  Rb  Rb0  1  0.54942461  0.54942461  0.54942461  1
  Rb  Rb1  1  0.45057539  0.00000000  0.00000000  1
  Rb  Rb2  1  0.00000000  0.45057539  0.00000000  1
  Rb  Rb3  1  0.00000000  0.00000000  0.45057539  1
  Rb  Rb4  1  0.75155479  0.75155479  0.00000000  1
  Rb  Rb5  1  0.24844521  0.24844521  0.00000000  1
  Rb  Rb6  1  0.75155479  0.00000000  0.75155479  1
  Rb  Rb7  1  0.24844521  0.00000000  0.24844521  1
  Rb  Rb8  1  0.00000000  0.75155479  0.75155479  1
  Rb  Rb9  1  0.00000000  0.24844521  0.24844521  1
  Rb  Rb10  1  0.25063951  0.75063951  0.50000000  1
  Rb  Rb11  1  0.74936049  0.24936049  0.50000000  1
  Rb  Rb12  1  0.75063951  0.50000000  0.25063951  1
  Rb  Rb13  1  0.24936049  0.50000000  0.74936049  1
  Rb  Rb14  1  0.50000000  0.25063951  0.75063951  1
  Rb  Rb15  1  0.50000000  0.74936049  0.24936049  1
