# generated using pymatgen
data_4889_Au12Sb4
_symmetry_space_group_name_H-M   'Pnma'
_cell_length_a   7.67563890
_cell_length_b   6.24650676
_cell_length_c   7.10068908
_cell_angle_alpha   90.00000000
_cell_angle_beta   90.00000000
_cell_angle_gamma   90.00000000
_chemical_formula_structural   Au12Sb4
_chemical_formula_sum   'Au12 Sb4'
_cell_volume   340.44914354
loop_
 _symmetry_equiv_pos_site_id
 _symmetry_equiv_pos_as_xyz
  1  'x, y, z'
loop_
 _atom_type_symbol
  Au
  Sb
loop_
 _atom_site_type_symbol
 _atom_site_label
 _atom_site_symmetry_multiplicity
 _atom_site_fract_x
 _atom_site_fract_y
 _atom_site_fract_z
 _atom_site_occupancy
  Au  Au0  1  0.19860858  0.86929167  0.75000000  1
  Au  Au1  1  0.69860858  0.63070833  0.25000000  1
  Au  Au2  1  0.30139142  0.36929167  0.75000000  1
  Au  Au3  1  0.80139142  0.13070833  0.25000000  1
  Au  Au4  1  0.61403025  0.32056826  0.95885384  1
  Au  Au5  1  0.11403025  0.17943174  0.04114616  1
  Au  Au6  1  0.88596975  0.82056826  0.54114616  1
  Au  Au7  1  0.38596975  0.67943174  0.45885384  1
  Au  Au8  1  0.38596975  0.67943174  0.04114616  1
  Au  Au9  1  0.88596975  0.82056826  0.95885384  1
  Au  Au10  1  0.11403025  0.17943174  0.45885384  1
  Au  Au11  1  0.61403025  0.32056826  0.54114616  1
  Sb  Sb0  1  0.57047068  0.92938722  0.75000000  1
  Sb  Sb1  1  0.07047068  0.57061278  0.25000000  1
  Sb  Sb2  1  0.92952932  0.42938722  0.75000000  1
  Sb  Sb3  1  0.42952932  0.07061278  0.25000000  1
