# generated using pymatgen
data_4891_Nb4Sr2
_symmetry_space_group_name_H-M   'Cm'
_cell_length_a   6.19921810
_cell_length_b   6.19921810
_cell_length_c   8.15424509
_cell_angle_alpha   86.94564745
_cell_angle_beta   86.94564745
_cell_angle_gamma   30.56683509
_chemical_formula_structural   Nb4Sr2
_chemical_formula_sum   'Nb4 Sr2'
_cell_volume   159.11891477
loop_
 _symmetry_equiv_pos_site_id
 _symmetry_equiv_pos_as_xyz
  1  'x, y, z'
loop_
 _atom_type_symbol
  Nb
  Sr
loop_
 _atom_site_type_symbol
 _atom_site_label
 _atom_site_symmetry_multiplicity
 _atom_site_fract_x
 _atom_site_fract_y
 _atom_site_fract_z
 _atom_site_occupancy
  Nb  Nb0  1  0.03548529  0.03548529  0.87164391  1
  Nb  Nb1  1  0.67190719  0.67190719  0.67930774  1
  Nb  Nb2  1  0.27822636  0.27822636  0.46209174  1
  Nb  Nb3  1  0.39064297  0.39064297  0.71704578  1
  Sr  Sr0  1  0.02385123  0.02385123  0.37137324  1
  Sr  Sr1  1  0.76655363  0.76655363  0.06520426  1
