# generated using pymatgen
data_4894_AgSr
_symmetry_space_group_name_H-M   'Pm -3 m'
_cell_length_a   3.86334186
_cell_length_b   5.46359046
_cell_length_c   3.94722542
_cell_angle_alpha   90.00000000
_cell_angle_beta   90.00000000
_cell_angle_gamma   45.00000000
_chemical_formula_structural   AgSr
_chemical_formula_sum   'Ag1 Sr1'
_cell_volume   58.91395917
loop_
 _symmetry_equiv_pos_site_id
 _symmetry_equiv_pos_as_xyz
  1  'x, y, z'
loop_
 _atom_type_symbol
  Ag
  Sr
loop_
 _atom_site_type_symbol
 _atom_site_label
 _atom_site_symmetry_multiplicity
 _atom_site_fract_x
 _atom_site_fract_y
 _atom_site_fract_z
 _atom_site_occupancy
  Ag  Ag0  1  0.00000000  0.00000000  0.00000000  1
  Sr  Sr0  1  0.00000000  0.50000071  0.50000094  1
