# generated using pymatgen
data_4897_CaSn
_symmetry_space_group_name_H-M   'Pm -3 m'
_cell_length_a   5.46861246
_cell_length_b   3.88856745
_cell_length_c   6.71528198
_cell_angle_alpha   54.57782353
_cell_angle_beta   90.00000000
_cell_angle_gamma   90.00000000
_chemical_formula_structural   CaSn
_chemical_formula_sum   'Ca2 Sn2'
_cell_volume   116.36898125
loop_
 _symmetry_equiv_pos_site_id
 _symmetry_equiv_pos_as_xyz
  1  'x, y, z'
loop_
 _atom_type_symbol
  Ca
  Sn
loop_
 _atom_site_type_symbol
 _atom_site_label
 _atom_site_symmetry_multiplicity
 _atom_site_fract_x
 _atom_site_fract_y
 _atom_site_fract_z
 _atom_site_occupancy
  Ca  Ca0  1  0.75000000  0.24991465  0.75002261  1
  Ca  Ca1  1  0.25000000  0.75008535  0.24997739  1
  Sn  Sn0  1  0.75000000  0.24991886  0.24999484  1
  Sn  Sn1  1  0.25000000  0.75008114  0.75000516  1
