# generated using pymatgen
data_48_Pb4As2
_symmetry_space_group_name_H-M   'Pnnm'
_cell_length_a   4.19975381
_cell_length_b   6.19177961
_cell_length_c   7.40951798
_cell_angle_alpha   90.00000000
_cell_angle_beta   90.00000000
_cell_angle_gamma   90.00000000
_chemical_formula_structural   Pb4As2
_chemical_formula_sum   'As2 Pb4'
_cell_volume   192.67673513
loop_
 _symmetry_equiv_pos_site_id
 _symmetry_equiv_pos_as_xyz
  1  'x, y, z'
loop_
 _atom_type_symbol
  As
  Pb
loop_
 _atom_site_type_symbol
 _atom_site_label
 _atom_site_symmetry_multiplicity
 _atom_site_fract_x
 _atom_site_fract_y
 _atom_site_fract_z
 _atom_site_occupancy
  As  As0  1  0.00000000  0.00000000  0.00000000  1
  As  As1  1  0.50000000  0.50000000  0.50000000  1
  Pb  Pb0  1  0.00000000  0.20655667  0.63896013  1
  Pb  Pb1  1  0.00000000  0.79344333  0.36103987  1
  Pb  Pb2  1  0.50000000  0.70655667  0.86103987  1
  Pb  Pb3  1  0.50000000  0.29344333  0.13896013  1
