# generated using pymatgen
data_4900_Ca2Sr
_symmetry_space_group_name_H-M   'I4/mmm'
_cell_length_a   9.01713971
_cell_length_b   9.01713971
_cell_length_c   9.01713971
_cell_angle_alpha   154.17087914
_cell_angle_beta   154.17087914
_cell_angle_gamma   36.85128265
_chemical_formula_structural   Ca2Sr
_chemical_formula_sum   'Ca2 Sr1'
_cell_volume   138.98173997
loop_
 _symmetry_equiv_pos_site_id
 _symmetry_equiv_pos_as_xyz
  1  'x, y, z'
loop_
 _atom_type_symbol
  Ca
  Sr
loop_
 _atom_site_type_symbol
 _atom_site_label
 _atom_site_symmetry_multiplicity
 _atom_site_fract_x
 _atom_site_fract_y
 _atom_site_fract_z
 _atom_site_occupancy
  Ca  Ca0  1  0.17225633  0.17225633  0.00000000  1
  Ca  Ca1  1  0.82774367  0.82774367  0.00000000  1
  Sr  Sr0  1  0.50000000  0.50000000  0.00000000  1
