# generated using pymatgen
data_4902_AgGa5
_symmetry_space_group_name_H-M   'Cmmm'
_cell_length_a   6.68908045
_cell_length_b   6.68908045
_cell_length_c   4.21339728
_cell_angle_alpha   90.00000000
_cell_angle_beta   90.00000000
_cell_angle_gamma   144.14633233
_chemical_formula_structural   AgGa5
_chemical_formula_sum   'Ag1 Ga5'
_cell_volume   110.42137981
loop_
 _symmetry_equiv_pos_site_id
 _symmetry_equiv_pos_as_xyz
  1  'x, y, z'
loop_
 _atom_type_symbol
  Ag
  Ga
loop_
 _atom_site_type_symbol
 _atom_site_label
 _atom_site_symmetry_multiplicity
 _atom_site_fract_x
 _atom_site_fract_y
 _atom_site_fract_z
 _atom_site_occupancy
  Ag  Ag0  1  0.02785108  0.97214892  0.00000000  1
  Ga  Ga0  1  0.19280652  0.80719348  0.50000000  1
  Ga  Ga1  1  0.36361274  0.63638726  0.00000000  1
  Ga  Ga2  1  0.52768320  0.47231680  0.50000000  1
  Ga  Ga3  1  0.69209181  0.30790819  0.00000000  1
  Ga  Ga4  1  0.86262133  0.13737867  0.50000000  1
