# generated using pymatgen
data_4906_Rh6Sb4
_symmetry_space_group_name_H-M   'Fdd2'
_cell_length_a   8.69482752
_cell_length_b   6.84085438
_cell_length_c   6.35893922
_cell_angle_alpha   82.31567117
_cell_angle_beta   51.23380189
_cell_angle_gamma   46.45052694
_chemical_formula_structural   Rh6Sb4
_chemical_formula_sum   'Rh6 Sb4'
_cell_volume   181.68407771
loop_
 _symmetry_equiv_pos_site_id
 _symmetry_equiv_pos_as_xyz
  1  'x, y, z'
loop_
 _atom_type_symbol
  Rh
  Sb
loop_
 _atom_site_type_symbol
 _atom_site_label
 _atom_site_symmetry_multiplicity
 _atom_site_fract_x
 _atom_site_fract_y
 _atom_site_fract_z
 _atom_site_occupancy
  Rh  Rh0  1  0.76051334  0.48323707  0.31594169  1
  Rh  Rh1  1  0.44030790  0.31594169  0.48323707  1
  Rh  Rh2  1  0.76676293  0.48948666  0.80969210  1
  Rh  Rh3  1  0.93405831  0.80969210  0.48948666  1
  Rh  Rh4  1  0.07089819  0.92910181  0.92910181  1
  Rh  Rh5  1  0.32089819  0.17910181  0.17910181  1
  Sb  Sb0  1  0.24323970  0.85703573  0.41468371  1
  Sb  Sb1  1  0.48504086  0.41468371  0.85703573  1
  Sb  Sb2  1  0.39296427  0.00676030  0.76495914  1
  Sb  Sb3  1  0.83531629  0.76495914  0.00676030  1
