# generated using pymatgen
data_4907_Rh2Ta4
_symmetry_space_group_name_H-M   'I4/mcm'
_cell_length_a   5.16862132
_cell_length_b   5.16862132
_cell_length_c   5.16862132
_cell_angle_alpha   104.66681865
_cell_angle_beta   104.66681865
_cell_angle_gamma   119.57777359
_chemical_formula_structural   Rh2Ta4
_chemical_formula_sum   'Rh2 Ta4'
_cell_volume   103.77426677
loop_
 _symmetry_equiv_pos_site_id
 _symmetry_equiv_pos_as_xyz
  1  'x, y, z'
loop_
 _atom_type_symbol
  Rh
  Ta
loop_
 _atom_site_type_symbol
 _atom_site_label
 _atom_site_symmetry_multiplicity
 _atom_site_fract_x
 _atom_site_fract_y
 _atom_site_fract_z
 _atom_site_occupancy
  Rh  Rh0  1  0.25000000  0.25000000  0.00000000  1
  Rh  Rh1  1  0.75000000  0.75000000  0.00000000  1
  Ta  Ta0  1  0.15637363  0.34362637  0.50000000  1
  Ta  Ta1  1  0.34362637  0.84362637  0.18725275  1
  Ta  Ta2  1  0.65637363  0.15637363  0.81274725  1
  Ta  Ta3  1  0.84362637  0.65637363  0.50000000  1
