# generated using pymatgen
data_4908_Mo2Ta2
_symmetry_space_group_name_H-M   'Cmcm'
_cell_length_a   3.17322186
_cell_length_b   5.27665020
_cell_length_c   4.45777434
_cell_angle_alpha   90.00000000
_cell_angle_beta   90.00000000
_cell_angle_gamma   107.49876599
_chemical_formula_structural   Mo2Ta2
_chemical_formula_sum   'Mo2 Ta2'
_cell_volume   71.18676752
loop_
 _symmetry_equiv_pos_site_id
 _symmetry_equiv_pos_as_xyz
  1  'x, y, z'
loop_
 _atom_type_symbol
  Mo
  Ta
loop_
 _atom_site_type_symbol
 _atom_site_label
 _atom_site_symmetry_multiplicity
 _atom_site_fract_x
 _atom_site_fract_y
 _atom_site_fract_z
 _atom_site_occupancy
  Mo  Mo0  1  0.12068690  0.24137380  0.25000000  1
  Mo  Mo1  1  0.87931310  0.75862620  0.75000000  1
  Ta  Ta0  1  0.39076570  0.78153140  0.25000000  1
  Ta  Ta1  1  0.60923430  0.21846860  0.75000000  1
