# generated using pymatgen
data_4909_InMn5
_symmetry_space_group_name_H-M   'Amm2'
_cell_length_a   7.11930384
_cell_length_b   7.11930384
_cell_length_c   4.07476000
_cell_angle_alpha   90.00000000
_cell_angle_beta   90.00000000
_cell_angle_gamma   158.69179135
_chemical_formula_structural   InMn5
_chemical_formula_sum   'In1 Mn5'
_cell_volume   75.04879766
loop_
 _symmetry_equiv_pos_site_id
 _symmetry_equiv_pos_as_xyz
  1  'x, y, z'
loop_
 _atom_type_symbol
  In
  Mn
loop_
 _atom_site_type_symbol
 _atom_site_label
 _atom_site_symmetry_multiplicity
 _atom_site_fract_x
 _atom_site_fract_y
 _atom_site_fract_z
 _atom_site_occupancy
  In  In0  1  0.00514134  0.99485866  0.00000000  1
  Mn  Mn0  1  0.32504092  0.67495908  0.00000000  1
  Mn  Mn1  1  0.68143665  0.31856335  0.00000000  1
  Mn  Mn2  1  0.41819185  0.58180815  0.50000000  1
  Mn  Mn3  1  0.77329676  0.22670324  0.50000000  1
  Mn  Mn4  1  0.13022581  0.86977419  0.50000000  1
