# generated using pymatgen
data_490_Cu5Ge
_symmetry_space_group_name_H-M   'P4/mmm'
_cell_length_a   2.66508074
_cell_length_b   2.66508074
_cell_length_c   10.86295920
_cell_angle_alpha   90.00000000
_cell_angle_beta   90.00000000
_cell_angle_gamma   90.00000000
_chemical_formula_structural   Cu5Ge
_chemical_formula_sum   'Cu5 Ge1'
_cell_volume   77.15585529
loop_
 _symmetry_equiv_pos_site_id
 _symmetry_equiv_pos_as_xyz
  1  'x, y, z'
loop_
 _atom_type_symbol
  Cu
  Ge
loop_
 _atom_site_type_symbol
 _atom_site_label
 _atom_site_symmetry_multiplicity
 _atom_site_fract_x
 _atom_site_fract_y
 _atom_site_fract_z
 _atom_site_occupancy
  Cu  Cu0  1  0.00000000  0.00000000  0.81748187  1
  Cu  Cu1  1  0.00000000  0.00000000  0.18251813  1
  Cu  Cu2  1  0.50000000  0.50000000  0.65771176  1
  Cu  Cu3  1  0.50000000  0.50000000  0.34228824  1
  Cu  Cu4  1  0.00000000  0.00000000  0.50000000  1
  Ge  Ge0  1  0.50000000  0.50000000  0.00000000  1
