# generated using pymatgen
data_4915_Cu2Rh6
_symmetry_space_group_name_H-M   'Pmmn'
_cell_length_a   5.39449069
_cell_length_b   4.39664750
_cell_length_c   4.65261589
_cell_angle_alpha   90.00000000
_cell_angle_beta   90.00000000
_cell_angle_gamma   90.00000000
_chemical_formula_structural   Cu2Rh6
_chemical_formula_sum   'Cu2 Rh6'
_cell_volume   110.34922695
loop_
 _symmetry_equiv_pos_site_id
 _symmetry_equiv_pos_as_xyz
  1  'x, y, z'
loop_
 _atom_type_symbol
  Cu
  Rh
loop_
 _atom_site_type_symbol
 _atom_site_label
 _atom_site_symmetry_multiplicity
 _atom_site_fract_x
 _atom_site_fract_y
 _atom_site_fract_z
 _atom_site_occupancy
  Cu  Cu0  1  0.00000000  0.00000000  0.66775811  1
  Cu  Cu1  1  0.50000000  0.50000000  0.33224189  1
  Rh  Rh0  1  0.00000000  0.50000000  0.34173929  1
  Rh  Rh1  1  0.25361215  0.00000000  0.16467340  1
  Rh  Rh2  1  0.24638785  0.50000000  0.83532660  1
  Rh  Rh3  1  0.50000000  0.00000000  0.65826071  1
  Rh  Rh4  1  0.74638785  0.00000000  0.16467340  1
  Rh  Rh5  1  0.75361215  0.50000000  0.83532660  1
