# generated using pymatgen
data_4924_Al2Sb4
_symmetry_space_group_name_H-M   'I4_1/amd'
_cell_length_a   12.29032854
_cell_length_b   12.29032854
_cell_length_c   12.29032854
_cell_angle_alpha   162.75134511
_cell_angle_beta   162.75134511
_cell_angle_gamma   24.48721100
_chemical_formula_structural   Al2Sb4
_chemical_formula_sum   'Al2 Sb4'
_cell_volume   163.18530348
loop_
 _symmetry_equiv_pos_site_id
 _symmetry_equiv_pos_as_xyz
  1  'x, y, z'
loop_
 _atom_type_symbol
  Al
  Sb
loop_
 _atom_site_type_symbol
 _atom_site_label
 _atom_site_symmetry_multiplicity
 _atom_site_fract_x
 _atom_site_fract_y
 _atom_site_fract_z
 _atom_site_occupancy
  Al  Al0  1  0.00000000  0.00000000  0.00000000  1
  Al  Al1  1  0.25000000  0.75000000  0.50000000  1
  Sb  Sb0  1  0.56119132  0.56119132  0.00000000  1
  Sb  Sb1  1  0.68880868  0.18880868  0.50000000  1
  Sb  Sb2  1  0.43880868  0.43880868  0.00000000  1
  Sb  Sb3  1  0.81119132  0.31119132  0.50000000  1
