# generated using pymatgen
data_4927_Ag3Pb
_symmetry_space_group_name_H-M   'Imm2'
_cell_length_a   5.79002149
_cell_length_b   5.79002149
_cell_length_c   5.79002149
_cell_angle_alpha   147.45507647
_cell_angle_beta   126.46346301
_cell_angle_gamma   64.06953954
_chemical_formula_structural   Ag3Pb
_chemical_formula_sum   'Ag3 Pb1'
_cell_volume   83.06436945
loop_
 _symmetry_equiv_pos_site_id
 _symmetry_equiv_pos_as_xyz
  1  'x, y, z'
loop_
 _atom_type_symbol
  Ag
  Pb
loop_
 _atom_site_type_symbol
 _atom_site_label
 _atom_site_symmetry_multiplicity
 _atom_site_fract_x
 _atom_site_fract_y
 _atom_site_fract_z
 _atom_site_occupancy
  Ag  Ag0  1  0.77460266  0.76028963  0.01431303  1
  Ag  Ag1  1  0.25402340  0.23971037  0.01431303  1
  Ag  Ag2  1  0.15813511  0.50000000  0.65813511  1
  Pb  Pb0  1  0.64656883  0.00000000  0.64656883  1
