# generated using pymatgen
data_4930_Cu4Yb2
_symmetry_space_group_name_H-M   'Imma'
_cell_length_a   4.24127500
_cell_length_b   5.42145607
_cell_length_c   5.42145607
_cell_angle_alpha   95.49432057
_cell_angle_beta   113.02648189
_cell_angle_gamma   66.97351811
_chemical_formula_structural   Cu4Yb2
_chemical_formula_sum   'Cu4 Yb2'
_cell_volume   105.34535754
loop_
 _symmetry_equiv_pos_site_id
 _symmetry_equiv_pos_as_xyz
  1  'x, y, z'
loop_
 _atom_type_symbol
  Cu
  Yb
loop_
 _atom_site_type_symbol
 _atom_site_label
 _atom_site_symmetry_multiplicity
 _atom_site_fract_x
 _atom_site_fract_y
 _atom_site_fract_z
 _atom_site_occupancy
  Cu  Cu0  1  0.05883135  0.10324524  0.22090794  1
  Cu  Cu1  1  0.55883192  0.27909121  0.39675392  1
  Cu  Cu2  1  0.44116921  0.72090847  0.60324576  1
  Cu  Cu3  1  0.94116978  0.89675444  0.77909174  1
  Yb  Yb0  1  0.75000054  0.70241520  0.20241402  1
  Yb  Yb1  1  0.25000059  0.29758448  0.79758566  1
