# generated using pymatgen
data_4933_FeNb
_symmetry_space_group_name_H-M   'P-6m2'
_cell_length_a   2.78420357
_cell_length_b   2.78415720
_cell_length_c   4.50696534
_cell_angle_alpha   90.00000000
_cell_angle_beta   90.00000000
_cell_angle_gamma   120.00055100
_chemical_formula_structural   FeNb
_chemical_formula_sum   'Fe1 Nb1'
_cell_volume   30.25569812
loop_
 _symmetry_equiv_pos_site_id
 _symmetry_equiv_pos_as_xyz
  1  'x, y, z'
loop_
 _atom_type_symbol
  Fe
  Nb
loop_
 _atom_site_type_symbol
 _atom_site_label
 _atom_site_symmetry_multiplicity
 _atom_site_fract_x
 _atom_site_fract_y
 _atom_site_fract_z
 _atom_site_occupancy
  Fe  Fe0  1  0.66666725  0.33333350  0.75000000  1
  Nb  Nb0  1  0.33333275  0.66666650  0.25000000  1
