# generated using pymatgen
data_4935_InPt
_symmetry_space_group_name_H-M   'Pm -3 m'
_cell_length_a   3.31212700
_cell_length_b   3.31212700
_cell_length_c   3.31212700
_cell_angle_alpha   90.00000000
_cell_angle_beta   90.00000000
_cell_angle_gamma   90.00000000
_chemical_formula_structural   InPt
_chemical_formula_sum   'In1 Pt1'
_cell_volume   36.33464681
loop_
 _symmetry_equiv_pos_site_id
 _symmetry_equiv_pos_as_xyz
  1  'x, y, z'
loop_
 _atom_type_symbol
  In
  Pt
loop_
 _atom_site_type_symbol
 _atom_site_label
 _atom_site_symmetry_multiplicity
 _atom_site_fract_x
 _atom_site_fract_y
 _atom_site_fract_z
 _atom_site_occupancy
  In  In0  1  0.00000000  0.00000000  0.00000000  1
  Pt  Pt0  1  0.49999899  0.49999899  0.49999899  1
