# generated using pymatgen
data_4938_Ni2Sb4
_symmetry_space_group_name_H-M   'Pnnm'
_cell_length_a   5.24809208
_cell_length_b   6.36046929
_cell_length_c   3.85927753
_cell_angle_alpha   90.00000000
_cell_angle_beta   90.00000000
_cell_angle_gamma   90.00000000
_chemical_formula_structural   Ni2Sb4
_chemical_formula_sum   'Ni2 Sb4'
_cell_volume   128.82395175
loop_
 _symmetry_equiv_pos_site_id
 _symmetry_equiv_pos_as_xyz
  1  'x, y, z'
loop_
 _atom_type_symbol
  Ni
  Sb
loop_
 _atom_site_type_symbol
 _atom_site_label
 _atom_site_symmetry_multiplicity
 _atom_site_fract_x
 _atom_site_fract_y
 _atom_site_fract_z
 _atom_site_occupancy
  Ni  Ni0  1  0.00000000  0.00000000  0.00000000  1
  Ni  Ni1  1  0.49999981  0.50000037  0.49999978  1
  Sb  Sb0  1  0.21860068  0.35869023  0.00000000  1
  Sb  Sb1  1  0.78139893  0.64131051  0.00000000  1
  Sb  Sb2  1  0.71860048  0.14131014  0.49999978  1
  Sb  Sb3  1  0.28139913  0.85869060  0.49999978  1
