# generated using pymatgen
data_4943_InK
_symmetry_space_group_name_H-M   'R -3 m'
_cell_length_a   6.47329191
_cell_length_b   6.47329191
_cell_length_c   6.47329167
_cell_angle_alpha   33.74626983
_cell_angle_beta   33.74626983
_cell_angle_gamma   33.74626855
_chemical_formula_structural   InK
_chemical_formula_sum   'In1 K1'
_cell_volume   74.58424236
loop_
 _symmetry_equiv_pos_site_id
 _symmetry_equiv_pos_as_xyz
  1  'x, y, z'
loop_
 _atom_type_symbol
  In
  K
loop_
 _atom_site_type_symbol
 _atom_site_label
 _atom_site_symmetry_multiplicity
 _atom_site_fract_x
 _atom_site_fract_y
 _atom_site_fract_z
 _atom_site_occupancy
  In  In0  1  0.00000000  0.00000000  0.00000000  1
  K  K0  1  0.50000000  0.50000000  0.50000000  1
