# generated using pymatgen
data_4945_Al3Br
_symmetry_space_group_name_H-M   'I4/mmm'
_cell_length_a   5.19843990
_cell_length_b   5.19843990
_cell_length_c   5.19843990
_cell_angle_alpha   128.55112382
_cell_angle_beta   128.55112382
_cell_angle_gamma   75.73391467
_chemical_formula_structural   Al3Br
_chemical_formula_sum   'Al3 Br1'
_cell_volume   83.57251783
loop_
 _symmetry_equiv_pos_site_id
 _symmetry_equiv_pos_as_xyz
  1  'x, y, z'
loop_
 _atom_type_symbol
  Al
  Br
loop_
 _atom_site_type_symbol
 _atom_site_label
 _atom_site_symmetry_multiplicity
 _atom_site_fract_x
 _atom_site_fract_y
 _atom_site_fract_z
 _atom_site_occupancy
  Al  Al0  1  0.25000000  0.75000000  0.50000000  1
  Al  Al1  1  0.50000000  0.50000000  0.00000000  1
  Al  Al2  1  0.75000000  0.25000000  0.50000000  1
  Br  Br0  1  0.00000000  0.00000000  0.00000000  1
