# generated using pymatgen
data_4946_Rh2W2
_symmetry_space_group_name_H-M   'Pmmn'
_cell_length_a   2.72702795
_cell_length_b   4.51058679
_cell_length_c   4.93234585
_cell_angle_alpha   90.00000000
_cell_angle_beta   90.00000000
_cell_angle_gamma   90.00000000
_chemical_formula_structural   Rh2W2
_chemical_formula_sum   'Rh2 W2'
_cell_volume   60.67030162
loop_
 _symmetry_equiv_pos_site_id
 _symmetry_equiv_pos_as_xyz
  1  'x, y, z'
loop_
 _atom_type_symbol
  Rh
  W
loop_
 _atom_site_type_symbol
 _atom_site_label
 _atom_site_symmetry_multiplicity
 _atom_site_fract_x
 _atom_site_fract_y
 _atom_site_fract_z
 _atom_site_occupancy
  Rh  Rh0  1  0.00000000  0.00000000  0.00657355  1
  Rh  Rh1  1  0.50000000  0.50000000  0.82675978  1
  W  W0  1  0.00000000  0.50000000  0.30549322  1
  W  W1  1  0.50000000  0.00000000  0.52784011  1
