# generated using pymatgen
data_4948_SmW
_symmetry_space_group_name_H-M   'P-6m2'
_cell_length_a   2.99537238
_cell_length_b   2.99498647
_cell_length_c   5.54753501
_cell_angle_alpha   90.00000000
_cell_angle_beta   90.00000000
_cell_angle_gamma   120.00426243
_chemical_formula_structural   SmW
_chemical_formula_sum   'Sm1 W1'
_cell_volume   43.09805933
loop_
 _symmetry_equiv_pos_site_id
 _symmetry_equiv_pos_as_xyz
  1  'x, y, z'
loop_
 _atom_type_symbol
  Sm
  W
loop_
 _atom_site_type_symbol
 _atom_site_label
 _atom_site_symmetry_multiplicity
 _atom_site_fract_x
 _atom_site_fract_y
 _atom_site_fract_z
 _atom_site_occupancy
  Sm  Sm0  1  0.66667322  0.33334432  0.75000066  1
  W  W0  1  0.33332893  0.66665768  0.24999962  1
