# generated using pymatgen
data_4950_CuMn2
_symmetry_space_group_name_H-M   'I4/mmm'
_cell_length_a   2.69982772
_cell_length_b   5.65123252
_cell_length_c   2.69982772
_cell_angle_alpha   76.18010234
_cell_angle_beta   90.00000000
_cell_angle_gamma   103.81989766
_chemical_formula_structural   CuMn2
_chemical_formula_sum   'Cu1 Mn2'
_cell_volume   38.77065309
loop_
 _symmetry_equiv_pos_site_id
 _symmetry_equiv_pos_as_xyz
  1  'x, y, z'
loop_
 _atom_type_symbol
  Cu
  Mn
loop_
 _atom_site_type_symbol
 _atom_site_label
 _atom_site_symmetry_multiplicity
 _atom_site_fract_x
 _atom_site_fract_y
 _atom_site_fract_z
 _atom_site_occupancy
  Cu  Cu0  1  0.00000000  0.00000000  0.00000000  1
  Mn  Mn0  1  0.33398884  0.66797769  0.66601116  1
  Mn  Mn1  1  0.66601116  0.33202231  0.33398884  1
