# generated using pymatgen
data_4954_Ni2V4
_symmetry_space_group_name_H-M   'Cmcm'
_cell_length_a   4.71481197
_cell_length_b   4.71481197
_cell_length_c   4.22762960
_cell_angle_alpha   90.00000000
_cell_angle_beta   90.00000000
_cell_angle_gamma   125.86451051
_chemical_formula_structural   Ni2V4
_chemical_formula_sum   'Ni2 V4'
_cell_volume   76.16012171
loop_
 _symmetry_equiv_pos_site_id
 _symmetry_equiv_pos_as_xyz
  1  'x, y, z'
loop_
 _atom_type_symbol
  Ni
  V
loop_
 _atom_site_type_symbol
 _atom_site_label
 _atom_site_symmetry_multiplicity
 _atom_site_fract_x
 _atom_site_fract_y
 _atom_site_fract_z
 _atom_site_occupancy
  Ni  Ni0  1  0.19441536  0.19441536  0.25000000  1
  Ni  Ni1  1  0.80558464  0.80558464  0.75000000  1
  V  V0  1  0.55889807  0.89125955  0.25000000  1
  V  V1  1  0.44110193  0.10874045  0.75000000  1
  V  V2  1  0.89125955  0.55889807  0.25000000  1
  V  V3  1  0.10874045  0.44110193  0.75000000  1
