# generated using pymatgen
data_4955_Fe2Br2
_symmetry_space_group_name_H-M   'Imma'
_cell_length_a   7.67346322
_cell_length_b   7.67346322
_cell_length_c   7.67346322
_cell_angle_alpha   155.40273410
_cell_angle_beta   153.72055192
_cell_angle_gamma   36.30261378
_chemical_formula_structural   Fe2Br2
_chemical_formula_sum   'Br2 Fe2'
_cell_volume   83.15921551
loop_
 _symmetry_equiv_pos_site_id
 _symmetry_equiv_pos_as_xyz
  1  'x, y, z'
loop_
 _atom_type_symbol
  Br
  Fe
loop_
 _atom_site_type_symbol
 _atom_site_label
 _atom_site_symmetry_multiplicity
 _atom_site_fract_x
 _atom_site_fract_y
 _atom_site_fract_z
 _atom_site_occupancy
  Br  Br0  1  0.00031515  0.00031515  0.00000000  1
  Br  Br1  1  0.74968485  0.24968485  0.50000000  1
  Fe  Fe0  1  0.42120932  0.42120932  0.00000000  1
  Fe  Fe1  1  0.32879068  0.82879068  0.50000000  1
