# generated using pymatgen
data_4958_Ba2Ge2
_symmetry_space_group_name_H-M   'P4/nmm'
_cell_length_a   3.83433981
_cell_length_b   3.83433981
_cell_length_c   9.66123573
_cell_angle_alpha   90.00000000
_cell_angle_beta   90.00000000
_cell_angle_gamma   90.00000000
_chemical_formula_structural   Ba2Ge2
_chemical_formula_sum   'Ba2 Ge2'
_cell_volume   142.04105068
loop_
 _symmetry_equiv_pos_site_id
 _symmetry_equiv_pos_as_xyz
  1  'x, y, z'
loop_
 _atom_type_symbol
  Ba
  Ge
loop_
 _atom_site_type_symbol
 _atom_site_label
 _atom_site_symmetry_multiplicity
 _atom_site_fract_x
 _atom_site_fract_y
 _atom_site_fract_z
 _atom_site_occupancy
  Ba  Ba0  1  0.25000000  0.25000000  0.20871819  1
  Ba  Ba1  1  0.75000000  0.75000000  0.79128181  1
  Ge  Ge0  1  0.25000000  0.25000000  0.55048538  1
  Ge  Ge1  1  0.75000000  0.75000000  0.44951462  1
