# generated using pymatgen
data_4962_Ge2P4
_symmetry_space_group_name_H-M   'C2/m'
_cell_length_a   3.99017288
_cell_length_b   3.99017288
_cell_length_c   8.80810618
_cell_angle_alpha   93.19318597
_cell_angle_beta   93.19318597
_cell_angle_gamma   52.55072473
_chemical_formula_structural   Ge2P4
_chemical_formula_sum   'Ge2 P4'
_cell_volume   111.11885888
loop_
 _symmetry_equiv_pos_site_id
 _symmetry_equiv_pos_as_xyz
  1  'x, y, z'
loop_
 _atom_type_symbol
  Ge
  P
loop_
 _atom_site_type_symbol
 _atom_site_label
 _atom_site_symmetry_multiplicity
 _atom_site_fract_x
 _atom_site_fract_y
 _atom_site_fract_z
 _atom_site_occupancy
  Ge  Ge0  1  0.34766874  0.34766874  0.72408731  1
  Ge  Ge1  1  0.37446847  0.37446847  0.22016034  1
  P  P0  1  0.97531587  0.97531587  0.06203165  1
  P  P1  1  0.65008989  0.65008989  0.39449701  1
  P  P2  1  0.07206919  0.07206919  0.54986988  1
  P  P3  1  0.74705451  0.74705451  0.88226957  1
