# generated using pymatgen
data_4964_Cu3Na5
_symmetry_space_group_name_H-M   'Cmmm'
_cell_length_a   6.70079876
_cell_length_b   6.70079876
_cell_length_c   3.95832346
_cell_angle_alpha   90.00000000
_cell_angle_beta   90.00000000
_cell_angle_gamma   86.62144905
_chemical_formula_structural   Cu3Na5
_chemical_formula_sum   'Cu3 Na5'
_cell_volume   177.42260535
loop_
 _symmetry_equiv_pos_site_id
 _symmetry_equiv_pos_as_xyz
  1  'x, y, z'
loop_
 _atom_type_symbol
  Cu
  Na
loop_
 _atom_site_type_symbol
 _atom_site_label
 _atom_site_symmetry_multiplicity
 _atom_site_fract_x
 _atom_site_fract_y
 _atom_site_fract_z
 _atom_site_occupancy
  Cu  Cu0  1  0.50000000  0.50000000  0.00000000  1
  Cu  Cu1  1  0.67292342  0.32707658  0.50000000  1
  Cu  Cu2  1  0.32707658  0.67292342  0.50000000  1
  Na  Na0  1  0.00000000  0.00000000  0.00000000  1
  Na  Na1  1  0.00000000  0.50000000  0.00000000  1
  Na  Na2  1  0.50000000  1.00000000  0.00000000  1
  Na  Na3  1  0.26210934  0.26210934  0.50000000  1
  Na  Na4  1  0.73789066  0.73789066  0.50000000  1
