# generated using pymatgen
data_4967_PtYb
_symmetry_space_group_name_H-M   'R -3 m'
_cell_length_a   4.17544602
_cell_length_b   4.17544602
_cell_length_c   4.17544621
_cell_angle_alpha   54.95933180
_cell_angle_beta   54.95933180
_cell_angle_gamma   54.95932356
_chemical_formula_structural   PtYb
_chemical_formula_sum   'Pt1 Yb1'
_cell_volume   45.43666110
loop_
 _symmetry_equiv_pos_site_id
 _symmetry_equiv_pos_as_xyz
  1  'x, y, z'
loop_
 _atom_type_symbol
  Pt
  Yb
loop_
 _atom_site_type_symbol
 _atom_site_label
 _atom_site_symmetry_multiplicity
 _atom_site_fract_x
 _atom_site_fract_y
 _atom_site_fract_z
 _atom_site_occupancy
  Pt  Pt0  1  0.00000000  0.00000000  0.00000000  1
  Yb  Yb0  1  0.50000021  0.50000021  0.50000054  1
