# generated using pymatgen
data_4971_Ni2Sb4
_symmetry_space_group_name_H-M   'Pnnm'
_cell_length_a   5.29100206
_cell_length_b   6.34917532
_cell_length_c   3.76106169
_cell_angle_alpha   90.00000000
_cell_angle_beta   90.00000000
_cell_angle_gamma   90.00000000
_chemical_formula_structural   Ni2Sb4
_chemical_formula_sum   'Ni2 Sb4'
_cell_volume   126.34722474
loop_
 _symmetry_equiv_pos_site_id
 _symmetry_equiv_pos_as_xyz
  1  'x, y, z'
loop_
 _atom_type_symbol
  Ni
  Sb
loop_
 _atom_site_type_symbol
 _atom_site_label
 _atom_site_symmetry_multiplicity
 _atom_site_fract_x
 _atom_site_fract_y
 _atom_site_fract_z
 _atom_site_occupancy
  Ni  Ni0  1  0.00000000  0.00000000  0.00000000  1
  Ni  Ni1  1  0.50000000  0.50000000  0.50000000  1
  Sb  Sb0  1  0.21530478  0.35814869  0.00000000  1
  Sb  Sb1  1  0.78469522  0.64185131  0.00000000  1
  Sb  Sb2  1  0.71530478  0.14185131  0.50000000  1
  Sb  Sb3  1  0.28469522  0.85814869  0.50000000  1
