# generated using pymatgen
data_4972_Fe4Mn4
_symmetry_space_group_name_H-M   'Pnma'
_cell_length_a   4.31012855
_cell_length_b   3.88681304
_cell_length_c   4.95335935
_cell_angle_alpha   90.00000000
_cell_angle_beta   90.00000000
_cell_angle_gamma   90.00000000
_chemical_formula_structural   Fe4Mn4
_chemical_formula_sum   'Fe4 Mn4'
_cell_volume   82.98196413
loop_
 _symmetry_equiv_pos_site_id
 _symmetry_equiv_pos_as_xyz
  1  'x, y, z'
loop_
 _atom_type_symbol
  Fe
  Mn
loop_
 _atom_site_type_symbol
 _atom_site_label
 _atom_site_symmetry_multiplicity
 _atom_site_fract_x
 _atom_site_fract_y
 _atom_site_fract_z
 _atom_site_occupancy
  Fe  Fe0  1  0.08388806  0.25000000  0.12597970  1
  Fe  Fe1  1  0.41611194  0.75000000  0.62597970  1
  Fe  Fe2  1  0.58388806  0.25000000  0.37402030  1
  Fe  Fe3  1  0.91611194  0.75000000  0.87402030  1
  Mn  Mn0  1  0.08452248  0.25000000  0.62322825  1
  Mn  Mn1  1  0.41547752  0.75000000  0.12322825  1
  Mn  Mn2  1  0.58452248  0.25000000  0.87677175  1
  Mn  Mn3  1  0.91547752  0.75000000  0.37677175  1
