# generated using pymatgen
data_4980_Rh6P4
_symmetry_space_group_name_H-M   'Fdd2'
_cell_length_a   7.98227777
_cell_length_b   6.17961184
_cell_length_c   5.96487533
_cell_angle_alpha   82.16433477
_cell_angle_beta   50.07973363
_cell_angle_gamma   47.75593160
_chemical_formula_structural   Rh6P4
_chemical_formula_sum   'P4 Rh6'
_cell_volume   142.71519362
loop_
 _symmetry_equiv_pos_site_id
 _symmetry_equiv_pos_as_xyz
  1  'x, y, z'
loop_
 _atom_type_symbol
  P
  Rh
loop_
 _atom_site_type_symbol
 _atom_site_label
 _atom_site_symmetry_multiplicity
 _atom_site_fract_x
 _atom_site_fract_y
 _atom_site_fract_z
 _atom_site_occupancy
  P  P0  1  0.22977401  0.87085810  0.42536996  1
  P  P1  1  0.47399793  0.42536996  0.87085810  1
  P  P2  1  0.37914190  0.02022599  0.77600207  1
  P  P3  1  0.82463004  0.77600207  0.02022599  1
  Rh  Rh0  1  0.78001766  0.49326042  0.31205801  1
  Rh  Rh1  1  0.41466391  0.31205801  0.49326042  1
  Rh  Rh2  1  0.75673958  0.46998234  0.83533609  1
  Rh  Rh3  1  0.93794199  0.83533609  0.46998234  1
  Rh  Rh4  1  0.10154650  0.89845350  0.89845350  1
  Rh  Rh5  1  0.35154650  0.14845350  0.14845350  1
