# generated using pymatgen
data_4984_Na4Pd
_symmetry_space_group_name_H-M   'I4/m'
_cell_length_a   7.27653120
_cell_length_b   7.27653120
_cell_length_c   5.67292597
_cell_angle_alpha   50.10830246
_cell_angle_beta   50.10830246
_cell_angle_gamma   90.00000000
_chemical_formula_structural   Na4Pd
_chemical_formula_sum   'Na4 Pd1'
_cell_volume   126.50157896
loop_
 _symmetry_equiv_pos_site_id
 _symmetry_equiv_pos_as_xyz
  1  'x, y, z'
loop_
 _atom_type_symbol
  Na
  Pd
loop_
 _atom_site_type_symbol
 _atom_site_label
 _atom_site_symmetry_multiplicity
 _atom_site_fract_x
 _atom_site_fract_y
 _atom_site_fract_z
 _atom_site_occupancy
  Na  Na0  1  0.78235206  0.60830219  0.00000000  1
  Na  Na1  1  0.60830219  0.21764794  0.00000000  1
  Na  Na2  1  0.21764794  0.39169781  0.00000000  1
  Na  Na3  1  0.39169781  0.78235206  0.00000000  1
  Pd  Pd0  1  0.00000000  0.00000000  0.00000000  1
