# generated using pymatgen
data_4985_Cu5Mn
_symmetry_space_group_name_H-M   'F-43m'
_cell_length_a   4.78944158
_cell_length_b   4.78944158
_cell_length_c   4.78944158
_cell_angle_alpha   60.00000000
_cell_angle_beta   60.00000000
_cell_angle_gamma   60.00000000
_chemical_formula_structural   Cu5Mn
_chemical_formula_sum   'Cu5 Mn1'
_cell_volume   77.68544238
loop_
 _symmetry_equiv_pos_site_id
 _symmetry_equiv_pos_as_xyz
  1  'x, y, z'
loop_
 _atom_type_symbol
  Cu
  Mn
loop_
 _atom_site_type_symbol
 _atom_site_label
 _atom_site_symmetry_multiplicity
 _atom_site_fract_x
 _atom_site_fract_y
 _atom_site_fract_z
 _atom_site_occupancy
  Cu  Cu0  1  0.37515418  0.37515418  0.37515418  1
  Cu  Cu1  1  0.75000000  0.75000000  0.75000000  1
  Cu  Cu2  1  0.37515418  0.37515418  0.87453746  1
  Cu  Cu3  1  0.87453746  0.37515418  0.37515418  1
  Cu  Cu4  1  0.37515418  0.87453746  0.37515418  1
  Mn  Mn0  1  0.00000000  0.00000000  0.00000000  1
