# generated using pymatgen
data_4986_Pb2Sr2
_symmetry_space_group_name_H-M   'Pmma'
_cell_length_a   4.19841943
_cell_length_b   5.79719119
_cell_length_c   5.87662404
_cell_angle_alpha   90.00000000
_cell_angle_beta   90.00000000
_cell_angle_gamma   90.00000000
_chemical_formula_structural   Pb2Sr2
_chemical_formula_sum   'Pb2 Sr2'
_cell_volume   143.03138835
loop_
 _symmetry_equiv_pos_site_id
 _symmetry_equiv_pos_as_xyz
  1  'x, y, z'
loop_
 _atom_type_symbol
  Pb
  Sr
loop_
 _atom_site_type_symbol
 _atom_site_label
 _atom_site_symmetry_multiplicity
 _atom_site_fract_x
 _atom_site_fract_y
 _atom_site_fract_z
 _atom_site_occupancy
  Pb  Pb0  1  0.00000000  0.00000000  0.90124713  1
  Pb  Pb1  1  0.00000000  0.50000000  0.43208620  1
  Sr  Sr0  1  0.50000000  0.00000000  0.40509853  1
  Sr  Sr1  1  0.50000000  0.50000000  0.92823480  1
