# generated using pymatgen
data_4989_Cu12Ge12
_symmetry_space_group_name_H-M   'Pbcm'
_cell_length_a   5.29451713
_cell_length_b   7.15685356
_cell_length_c   9.66191233
_cell_angle_alpha   90.00000000
_cell_angle_beta   90.00000000
_cell_angle_gamma   90.00000000
_chemical_formula_structural   Cu12Ge12
_chemical_formula_sum   'Cu12 Ge12'
_cell_volume   366.10999139
loop_
 _symmetry_equiv_pos_site_id
 _symmetry_equiv_pos_as_xyz
  1  'x, y, z'
loop_
 _atom_type_symbol
  Cu
  Ge
loop_
 _atom_site_type_symbol
 _atom_site_label
 _atom_site_symmetry_multiplicity
 _atom_site_fract_x
 _atom_site_fract_y
 _atom_site_fract_z
 _atom_site_occupancy
  Cu  Cu0  1  0.25000000  0.06089000  0.12592487  1
  Cu  Cu1  1  0.75000000  0.93911000  0.87407513  1
  Cu  Cu2  1  0.25000000  0.56089000  0.87407513  1
  Cu  Cu3  1  0.75000000  0.43911000  0.12592487  1
  Cu  Cu4  1  0.25000000  0.51841123  0.48193399  1
  Cu  Cu5  1  0.75000000  0.48158877  0.51806601  1
  Cu  Cu6  1  0.25000000  0.01841123  0.51806601  1
  Cu  Cu7  1  0.75000000  0.98158877  0.48193399  1
  Cu  Cu8  1  0.00000000  0.75000000  0.07464627  1
  Cu  Cu9  1  0.50000000  0.25000000  0.92535373  1
  Cu  Cu10  1  0.00000000  0.25000000  0.92535373  1
  Cu  Cu11  1  0.50000000  0.75000000  0.07464627  1
  Ge  Ge0  1  0.25000000  0.42648699  0.12234925  1
  Ge  Ge1  1  0.75000000  0.57351301  0.87765075  1
  Ge  Ge2  1  0.25000000  0.92648699  0.87765075  1
  Ge  Ge3  1  0.75000000  0.07351301  0.12234925  1
  Ge  Ge4  1  0.25000000  0.80478177  0.31141728  1
  Ge  Ge5  1  0.75000000  0.19521823  0.68858272  1
  Ge  Ge6  1  0.25000000  0.30478177  0.68858272  1
  Ge  Ge7  1  0.75000000  0.69521823  0.31141728  1
  Ge  Ge8  1  0.00000000  0.75000000  0.64403707  1
  Ge  Ge9  1  0.50000000  0.25000000  0.35596293  1
  Ge  Ge10  1  0.00000000  0.25000000  0.35596293  1
  Ge  Ge11  1  0.50000000  0.75000000  0.64403707  1
