# generated using pymatgen
data_498_Ge4Br5
_symmetry_space_group_name_H-M   'I4/mmm'
_cell_length_a   7.88914151
_cell_length_b   7.88914151
_cell_length_c   7.88914151
_cell_angle_alpha   93.26361192
_cell_angle_beta   93.26361192
_cell_angle_gamma   152.39214397
_chemical_formula_structural   Ge4Br5
_chemical_formula_sum   'Br5 Ge4'
_cell_volume   220.97018428
loop_
 _symmetry_equiv_pos_site_id
 _symmetry_equiv_pos_as_xyz
  1  'x, y, z'
loop_
 _atom_type_symbol
  Br
  Ge
loop_
 _atom_site_type_symbol
 _atom_site_label
 _atom_site_symmetry_multiplicity
 _atom_site_fract_x
 _atom_site_fract_y
 _atom_site_fract_z
 _atom_site_occupancy
  Br  Br0  1  0.00000000  0.00000000  0.00000000  1
  Br  Br1  1  0.66696211  0.33303789  0.00000000  1
  Br  Br2  1  0.33303789  0.66696211  0.00000000  1
  Br  Br3  1  0.33303789  0.33303789  0.66607578  1
  Br  Br4  1  0.66696211  0.66696211  0.33392422  1
  Ge  Ge0  1  0.63604606  0.00000000  0.63604606  1
  Ge  Ge1  1  0.36395394  0.00000000  0.36395394  1
  Ge  Ge2  1  1.00000000  0.36395394  0.36395394  1
  Ge  Ge3  1  1.00000000  0.63604606  0.63604606  1
