# generated using pymatgen
data_4990_Au2Nb4
_symmetry_space_group_name_H-M   'C2/m'
_cell_length_a   5.66274327
_cell_length_b   5.66274327
_cell_length_c   11.71262565
_cell_angle_alpha   140.42614866
_cell_angle_beta   140.42614866
_cell_angle_gamma   28.21356622
_chemical_formula_structural   Au2Nb4
_chemical_formula_sum   'Au2 Nb4'
_cell_volume   107.76339637
loop_
 _symmetry_equiv_pos_site_id
 _symmetry_equiv_pos_as_xyz
  1  'x, y, z'
loop_
 _atom_type_symbol
  Au
  Nb
loop_
 _atom_site_type_symbol
 _atom_site_label
 _atom_site_symmetry_multiplicity
 _atom_site_fract_x
 _atom_site_fract_y
 _atom_site_fract_z
 _atom_site_occupancy
  Au  Au0  1  0.01069080  0.01069080  0.01294576  1
  Au  Au1  1  0.10042031  0.10042031  0.70927647  1
  Nb  Nb0  1  0.34183644  0.34183644  0.68566787  1
  Nb  Nb1  1  0.44103986  0.44103986  0.37580160  1
  Nb  Nb2  1  0.67007125  0.67007125  0.34642063  1
  Nb  Nb3  1  0.76927467  0.76927467  0.03655435  1
