# generated using pymatgen
data_4998_Al16Ge8
_symmetry_space_group_name_H-M   'Fd -3 m'
_cell_length_a   8.51001692
_cell_length_b   8.51001692
_cell_length_c   8.51001692
_cell_angle_alpha   60.00000000
_cell_angle_beta   60.00000000
_cell_angle_gamma   60.00000000
_chemical_formula_structural   Al16Ge8
_chemical_formula_sum   'Al16 Ge8'
_cell_volume   435.78900867
loop_
 _symmetry_equiv_pos_site_id
 _symmetry_equiv_pos_as_xyz
  1  'x, y, z'
loop_
 _atom_type_symbol
  Al
  Ge
loop_
 _atom_site_type_symbol
 _atom_site_label
 _atom_site_symmetry_multiplicity
 _atom_site_fract_x
 _atom_site_fract_y
 _atom_site_fract_z
 _atom_site_occupancy
  Al  Al0  1  0.00000000  0.50000000  0.50000000  1
  Al  Al1  1  0.00000000  0.50000000  0.00000000  1
  Al  Al2  1  0.00000000  0.00000000  0.50000000  1
  Al  Al3  1  0.50000000  0.50000000  0.50000000  1
  Al  Al4  1  0.19887934  0.69887934  0.05112066  1
  Al  Al5  1  0.19887934  0.05112066  0.69887934  1
  Al  Al6  1  0.19887934  0.05112066  0.05112066  1
  Al  Al7  1  0.55112066  0.69887934  0.69887934  1
  Al  Al8  1  0.55112066  0.69887934  0.05112066  1
  Al  Al9  1  0.55112066  0.05112066  0.69887934  1
  Al  Al10  1  0.80112066  0.30112066  0.94887934  1
  Al  Al11  1  0.80112066  0.94887934  0.30112066  1
  Al  Al12  1  0.80112066  0.94887934  0.94887934  1
  Al  Al13  1  0.44887934  0.30112066  0.30112066  1
  Al  Al14  1  0.44887934  0.30112066  0.94887934  1
  Al  Al15  1  0.44887934  0.94887934  0.30112066  1
  Ge  Ge0  1  0.15839730  0.28053423  0.28053423  1
  Ge  Ge1  1  0.78053423  0.65839730  0.28053423  1
  Ge  Ge2  1  0.78053423  0.28053423  0.65839730  1
  Ge  Ge3  1  0.78053423  0.28053423  0.28053423  1
  Ge  Ge4  1  0.84160270  0.71946577  0.71946577  1
  Ge  Ge5  1  0.21946577  0.34160270  0.71946577  1
  Ge  Ge6  1  0.21946577  0.71946577  0.34160270  1
  Ge  Ge7  1  0.21946577  0.71946577  0.71946577  1
