# generated using pymatgen
data_4999_Pt2Th2
_symmetry_space_group_name_H-M   'Cmcm'
_cell_length_a   3.93770842
_cell_length_b   4.48315417
_cell_length_c   5.96875999
_cell_angle_alpha   90.00000000
_cell_angle_beta   70.73973149
_cell_angle_gamma   90.00000000
_chemical_formula_structural   Pt2Th2
_chemical_formula_sum   'Pt2 Th2'
_cell_volume   99.47114169
loop_
 _symmetry_equiv_pos_site_id
 _symmetry_equiv_pos_as_xyz
  1  'x, y, z'
loop_
 _atom_type_symbol
  Pt
  Th
loop_
 _atom_site_type_symbol
 _atom_site_label
 _atom_site_symmetry_multiplicity
 _atom_site_fract_x
 _atom_site_fract_y
 _atom_site_fract_z
 _atom_site_occupancy
  Pt  Pt0  1  0.40319784  0.75000000  0.19360432  1
  Pt  Pt1  1  0.59680216  0.25000000  0.80639568  1
  Th  Th0  1  0.86376922  0.25000000  0.27246155  1
  Th  Th1  1  0.13623078  0.75000000  0.72753845  1
