# generated using pymatgen
data_4_Ir2Na2
_symmetry_space_group_name_H-M   'Imma'
_cell_length_a   6.14909119
_cell_length_b   6.14909119
_cell_length_c   6.14909119
_cell_angle_alpha   154.29594030
_cell_angle_beta   129.80551391
_cell_angle_gamma   57.23259552
_chemical_formula_structural   Ir2Na2
_chemical_formula_sum   'Ir2 Na2'
_cell_volume   77.02611769
loop_
 _symmetry_equiv_pos_site_id
 _symmetry_equiv_pos_as_xyz
  1  'x, y, z'
loop_
 _atom_type_symbol
  Ir
  Na
loop_
 _atom_site_type_symbol
 _atom_site_label
 _atom_site_symmetry_multiplicity
 _atom_site_fract_x
 _atom_site_fract_y
 _atom_site_fract_z
 _atom_site_occupancy
  Ir  Ir0  1  0.40354915  0.65354915  0.25000000  1
  Ir  Ir1  1  0.59645085  0.34645085  0.75000000  1
  Na  Na0  1  0.85721608  0.10721608  0.25000000  1
  Na  Na1  1  0.14278392  0.89278392  0.75000000  1
