# generated using pymatgen
data_501_FeSb3
_symmetry_space_group_name_H-M   'Immm'
_cell_length_a   6.40595396
_cell_length_b   6.40595396
_cell_length_c   6.40595396
_cell_angle_alpha   151.21728946
_cell_angle_beta   134.15011750
_cell_angle_gamma   55.04081943
_chemical_formula_structural   FeSb3
_chemical_formula_sum   'Fe1 Sb3'
_cell_volume   90.28131211
loop_
 _symmetry_equiv_pos_site_id
 _symmetry_equiv_pos_as_xyz
  1  'x, y, z'
loop_
 _atom_type_symbol
  Fe
  Sb
loop_
 _atom_site_type_symbol
 _atom_site_label
 _atom_site_symmetry_multiplicity
 _atom_site_fract_x
 _atom_site_fract_y
 _atom_site_fract_z
 _atom_site_occupancy
  Fe  Fe0  1  0.50000000  1.00000000  0.50000000  1
  Sb  Sb0  1  0.31061412  0.31061412  0.00000000  1
  Sb  Sb1  1  0.68938588  0.68938588  0.00000000  1
  Sb  Sb2  1  0.00000000  0.50000000  0.50000000  1
