# generated using pymatgen
data_522_FeTh
_symmetry_space_group_name_H-M   'Fm -3 m'
_cell_length_a   3.85893773
_cell_length_b   3.85893773
_cell_length_c   3.85893738
_cell_angle_alpha   59.49085852
_cell_angle_beta   59.49085852
_cell_angle_gamma   59.49085956
_chemical_formula_structural   FeTh
_chemical_formula_sum   'Fe1 Th1'
_cell_volume   40.16334281
loop_
 _symmetry_equiv_pos_site_id
 _symmetry_equiv_pos_as_xyz
  1  'x, y, z'
loop_
 _atom_type_symbol
  Fe
  Th
loop_
 _atom_site_type_symbol
 _atom_site_label
 _atom_site_symmetry_multiplicity
 _atom_site_fract_x
 _atom_site_fract_y
 _atom_site_fract_z
 _atom_site_occupancy
  Fe  Fe0  1  0.00000000  0.00000000  0.00000000  1
  Th  Th0  1  0.49999951  0.49999951  0.49999989  1
