# generated using pymatgen
data_526_GeP
_symmetry_space_group_name_H-M   'P-6m2'
_cell_length_a   2.84909700
_cell_length_b   2.84879245
_cell_length_c   4.86286900
_cell_angle_alpha   90.00000000
_cell_angle_beta   90.00000000
_cell_angle_gamma   120.00352482
_chemical_formula_structural   GeP
_chemical_formula_sum   'Ge1 P1'
_cell_volume   34.18029611
loop_
 _symmetry_equiv_pos_site_id
 _symmetry_equiv_pos_as_xyz
  1  'x, y, z'
loop_
 _atom_type_symbol
  Ge
  P
loop_
 _atom_site_type_symbol
 _atom_site_label
 _atom_site_symmetry_multiplicity
 _atom_site_fract_x
 _atom_site_fract_y
 _atom_site_fract_z
 _atom_site_occupancy
  Ge  Ge0  1  0.66666597  0.33333076  0.74999960  1
  P  P0  1  0.33333278  0.66666557  0.24999850  1
