# generated using pymatgen
data_534_Ni2Sb2
_symmetry_space_group_name_H-M   'P4/nmm'
_cell_length_a   3.59534534
_cell_length_b   3.59534534
_cell_length_c   6.12011330
_cell_angle_alpha   90.00000000
_cell_angle_beta   90.00000000
_cell_angle_gamma   90.00000000
_chemical_formula_structural   Ni2Sb2
_chemical_formula_sum   'Ni2 Sb2'
_cell_volume   79.11169423
loop_
 _symmetry_equiv_pos_site_id
 _symmetry_equiv_pos_as_xyz
  1  'x, y, z'
loop_
 _atom_type_symbol
  Ni
  Sb
loop_
 _atom_site_type_symbol
 _atom_site_label
 _atom_site_symmetry_multiplicity
 _atom_site_fract_x
 _atom_site_fract_y
 _atom_site_fract_z
 _atom_site_occupancy
  Ni  Ni0  1  0.25000000  0.75000000  0.00000000  1
  Ni  Ni1  1  0.75000000  0.25000000  0.00000000  1
  Sb  Sb0  1  0.25000000  0.25000000  0.29964940  1
  Sb  Sb1  1  0.75000000  0.75000000  0.70035060  1
