# generated using pymatgen
data_537_Fe2Ga2
_symmetry_space_group_name_H-M   'I4_1/amd'
_cell_length_a   4.65165827
_cell_length_b   4.65165827
_cell_length_c   4.65165827
_cell_angle_alpha   135.05552705
_cell_angle_beta   135.05552705
_cell_angle_gamma   65.44393523
_chemical_formula_structural   Fe2Ga2
_chemical_formula_sum   'Fe2 Ga2'
_cell_volume   49.48785718
loop_
 _symmetry_equiv_pos_site_id
 _symmetry_equiv_pos_as_xyz
  1  'x, y, z'
loop_
 _atom_type_symbol
  Fe
  Ga
loop_
 _atom_site_type_symbol
 _atom_site_label
 _atom_site_symmetry_multiplicity
 _atom_site_fract_x
 _atom_site_fract_y
 _atom_site_fract_z
 _atom_site_occupancy
  Fe  Fe0  1  0.00000000  0.00000000  0.00000000  1
  Fe  Fe1  1  0.25000000  0.75000000  0.50000000  1
  Ga  Ga0  1  0.50000000  0.50000000  0.00000000  1
  Ga  Ga1  1  0.75000000  0.25000000  0.50000000  1
