# generated using pymatgen
data_540_V2Br
_symmetry_space_group_name_H-M   'I4/mmm'
_cell_length_a   5.84834082
_cell_length_b   5.84834082
_cell_length_c   5.84834082
_cell_angle_alpha   149.98601255
_cell_angle_beta   149.98601255
_cell_angle_gamma   42.96193529
_chemical_formula_structural   V2Br
_chemical_formula_sum   'Br1 V2'
_cell_volume   49.92071096
loop_
 _symmetry_equiv_pos_site_id
 _symmetry_equiv_pos_as_xyz
  1  'x, y, z'
loop_
 _atom_type_symbol
  Br
  V
loop_
 _atom_site_type_symbol
 _atom_site_label
 _atom_site_symmetry_multiplicity
 _atom_site_fract_x
 _atom_site_fract_y
 _atom_site_fract_z
 _atom_site_occupancy
  Br  Br0  1  0.00000000  0.00000000  0.00000000  1
  V  V0  1  0.67784446  0.67784446  0.00000000  1
  V  V1  1  0.32215554  0.32215554  0.00000000  1
