# generated using pymatgen
data_543_Sr4Br8
_symmetry_space_group_name_H-M   'Pnma'
_cell_length_a   4.83637575
_cell_length_b   7.97820608
_cell_length_c   11.41085195
_cell_angle_alpha   90.00000000
_cell_angle_beta   90.00000000
_cell_angle_gamma   90.00000000
_chemical_formula_structural   Sr4Br8
_chemical_formula_sum   'Br8 Sr4'
_cell_volume   440.29459655
loop_
 _symmetry_equiv_pos_site_id
 _symmetry_equiv_pos_as_xyz
  1  'x, y, z'
loop_
 _atom_type_symbol
  Br
  Sr
loop_
 _atom_site_type_symbol
 _atom_site_label
 _atom_site_symmetry_multiplicity
 _atom_site_fract_x
 _atom_site_fract_y
 _atom_site_fract_z
 _atom_site_occupancy
  Sr  Sr0  1  0.25000000  0.11916806  0.82842357  1
  Sr  Sr1  1  0.75000000  0.88083194  0.17157643  1
  Sr  Sr2  1  0.25000000  0.38083194  0.32842357  1
  Sr  Sr3  1  0.75000000  0.61916806  0.67157643  1
  Br  Br0  1  0.75000000  0.62516428  0.39045347  1
  Br  Br1  1  0.25000000  0.37483572  0.60954653  1
  Br  Br2  1  0.25000000  0.64485569  0.12837297  1
  Br  Br3  1  0.25000000  0.12516428  0.10954653  1
  Br  Br4  1  0.25000000  0.85514431  0.62837297  1
  Br  Br5  1  0.75000000  0.35514431  0.87162703  1
  Br  Br6  1  0.75000000  0.87483572  0.89045347  1
  Br  Br7  1  0.75000000  0.14485569  0.37162703  1
