# generated using pymatgen
data_547_AgAl3
_symmetry_space_group_name_H-M   'I4/mmm'
_cell_length_a   4.99442471
_cell_length_b   4.99442471
_cell_length_c   4.99442471
_cell_angle_alpha   131.78714078
_cell_angle_beta   131.78714078
_cell_angle_gamma   70.56542335
_chemical_formula_structural   AgAl3
_chemical_formula_sum   'Ag1 Al3'
_cell_volume   67.86001680
loop_
 _symmetry_equiv_pos_site_id
 _symmetry_equiv_pos_as_xyz
  1  'x, y, z'
loop_
 _atom_type_symbol
  Ag
  Al
loop_
 _atom_site_type_symbol
 _atom_site_label
 _atom_site_symmetry_multiplicity
 _atom_site_fract_x
 _atom_site_fract_y
 _atom_site_fract_z
 _atom_site_occupancy
  Ag  Ag0  1  0.00000000  0.00000000  0.00000000  1
  Al  Al0  1  0.25000000  0.75000000  0.50000000  1
  Al  Al1  1  0.50000000  0.50000000  0.00000000  1
  Al  Al2  1  0.75000000  0.25000000  0.50000000  1
