# generated using pymatgen
data_54_Ba2Sn6
_symmetry_space_group_name_H-M   'Cmcm'
_cell_length_a   6.75482542
_cell_length_b   6.75482542
_cell_length_c   6.31840776
_cell_angle_alpha   90.00000000
_cell_angle_beta   90.00000000
_cell_angle_gamma   98.17042869
_chemical_formula_structural   Ba2Sn6
_chemical_formula_sum   'Ba2 Sn6'
_cell_volume   285.36793237
loop_
 _symmetry_equiv_pos_site_id
 _symmetry_equiv_pos_as_xyz
  1  'x, y, z'
loop_
 _atom_type_symbol
  Ba
  Sn
loop_
 _atom_site_type_symbol
 _atom_site_label
 _atom_site_symmetry_multiplicity
 _atom_site_fract_x
 _atom_site_fract_y
 _atom_site_fract_z
 _atom_site_occupancy
  Ba  Ba0  1  0.38489901  0.61510099  0.25000000  1
  Ba  Ba1  1  0.61510099  0.38489901  0.75000000  1
  Sn  Sn0  1  0.02648781  0.97351219  0.75000000  1
  Sn  Sn1  1  0.97351219  0.02648781  0.25000000  1
  Sn  Sn2  1  0.11045393  0.54693267  0.75000000  1
  Sn  Sn3  1  0.88954607  0.45306733  0.25000000  1
  Sn  Sn4  1  0.45306733  0.88954607  0.75000000  1
  Sn  Sn5  1  0.54693267  0.11045393  0.25000000  1
