# generated using pymatgen
data_561_Ag4Al3
_symmetry_space_group_name_H-M   'I4/mmm'
_cell_length_a   14.50750534
_cell_length_b   2.89336600
_cell_length_c   2.89336600
_cell_angle_alpha   90.00000005
_cell_angle_beta   95.72299705
_cell_angle_gamma   95.72299706
_chemical_formula_structural   Ag4Al3
_chemical_formula_sum   'Ag4 Al3'
_cell_volume   120.23679211
loop_
 _symmetry_equiv_pos_site_id
 _symmetry_equiv_pos_as_xyz
  1  'x, y, z'
loop_
 _atom_type_symbol
  Ag
  Al
loop_
 _atom_site_type_symbol
 _atom_site_label
 _atom_site_symmetry_multiplicity
 _atom_site_fract_x
 _atom_site_fract_y
 _atom_site_fract_z
 _atom_site_occupancy
  Ag  Ag0  1  0.98948519  0.99474259  0.99474259  1
  Ag  Ag1  1  0.14079333  0.57039666  0.57039666  1
  Ag  Ag2  1  0.28777810  0.14388905  0.14388905  1
  Ag  Ag3  1  0.43908624  0.71954312  0.71954312  1
  Al  Al0  1  0.57438115  0.28719057  0.28719057  1
  Al  Al1  1  0.71428571  0.85714286  0.85714286  1
  Al  Al2  1  0.85419028  0.42709514  0.42709514  1
