# generated using pymatgen
data_563_CsNi
_symmetry_space_group_name_H-M   'Amm2'
_cell_length_a   4.62390086
_cell_length_b   4.56353037
_cell_length_c   5.04852859
_cell_angle_alpha   90.00000000
_cell_angle_beta   90.00000000
_cell_angle_gamma   120.43857411
_chemical_formula_structural   CsNi
_chemical_formula_sum   'Cs1 Ni1'
_cell_volume   91.84776458
loop_
 _symmetry_equiv_pos_site_id
 _symmetry_equiv_pos_as_xyz
  1  'x, y, z'
loop_
 _atom_type_symbol
  Cs
  Ni
loop_
 _atom_site_type_symbol
 _atom_site_label
 _atom_site_symmetry_multiplicity
 _atom_site_fract_x
 _atom_site_fract_y
 _atom_site_fract_z
 _atom_site_occupancy
  Cs  Cs0  1  0.66721718  0.33443335  0.75000000  1
  Ni  Ni0  1  0.33278282  0.66556665  0.25000000  1
