# generated using pymatgen
data_564_Ba2As4
_symmetry_space_group_name_H-M   'I4_1/amd'
_cell_length_a   8.65835851
_cell_length_b   8.65835851
_cell_length_c   8.65835851
_cell_angle_alpha   148.46436017
_cell_angle_beta   148.42302367
_cell_angle_gamma   45.23082087
_chemical_formula_structural   Ba2As4
_chemical_formula_sum   'As4 Ba2'
_cell_volume   177.20644425
loop_
 _symmetry_equiv_pos_site_id
 _symmetry_equiv_pos_as_xyz
  1  'x, y, z'
loop_
 _atom_type_symbol
  As
  Ba
loop_
 _atom_site_type_symbol
 _atom_site_label
 _atom_site_symmetry_multiplicity
 _atom_site_fract_x
 _atom_site_fract_y
 _atom_site_fract_z
 _atom_site_occupancy
  As  As0  1  0.70663270  0.95663270  0.75000000  1
  As  As1  1  0.29336730  0.04336730  0.25000000  1
  As  As2  1  0.54411616  0.79411616  0.75000000  1
  As  As3  1  0.45588384  0.20588384  0.25000000  1
  Ba  Ba0  1  0.12480155  0.37480155  0.75000000  1
  Ba  Ba1  1  0.87519845  0.62519845  0.25000000  1
