# generated using pymatgen
data_56_CsMn
_symmetry_space_group_name_H-M   'P-6m2'
_cell_length_a   4.37672215
_cell_length_b   4.37608330
_cell_length_c   6.89961419
_cell_angle_alpha   90.00000000
_cell_angle_beta   90.00000000
_cell_angle_gamma   120.00482211
_chemical_formula_structural   CsMn
_chemical_formula_sum   'Cs1 Mn1'
_cell_volume   114.43763948
loop_
 _symmetry_equiv_pos_site_id
 _symmetry_equiv_pos_as_xyz
  1  'x, y, z'
loop_
 _atom_type_symbol
  Cs
  Mn
loop_
 _atom_site_type_symbol
 _atom_site_label
 _atom_site_symmetry_multiplicity
 _atom_site_fract_x
 _atom_site_fract_y
 _atom_site_fract_z
 _atom_site_occupancy
  Cs  Cs0  1  0.66667079  0.33334059  0.75000000  1
  Mn  Mn0  1  0.33332921  0.66665941  0.25000000  1
