# generated using pymatgen
data_573_Fe3Ga
_symmetry_space_group_name_H-M   'P4/mmm'
_cell_length_a   2.98735417
_cell_length_b   3.08242849
_cell_length_c   5.31916918
_cell_angle_alpha   90.00000000
_cell_angle_beta   90.00000000
_cell_angle_gamma   90.00000000
_chemical_formula_structural   Fe3Ga
_chemical_formula_sum   'Fe3 Ga1'
_cell_volume   48.98053537
loop_
 _symmetry_equiv_pos_site_id
 _symmetry_equiv_pos_as_xyz
  1  'x, y, z'
loop_
 _atom_type_symbol
  Fe
  Ga
loop_
 _atom_site_type_symbol
 _atom_site_label
 _atom_site_symmetry_multiplicity
 _atom_site_fract_x
 _atom_site_fract_y
 _atom_site_fract_z
 _atom_site_occupancy
  Fe  Fe0  1  0.50000000  0.50000000  0.74095822  1
  Fe  Fe1  1  0.00000000  0.00000000  0.50000000  1
  Fe  Fe2  1  0.50000000  0.50000000  0.25904178  1
  Ga  Ga0  1  0.00000000  0.00000000  0.00000000  1
