# generated using pymatgen
data_575_AcRb
_symmetry_space_group_name_H-M   'Fm -3 m'
_cell_length_a   5.42016127
_cell_length_b   5.42016127
_cell_length_c   5.42016127
_cell_angle_alpha   60.00000000
_cell_angle_beta   60.00000000
_cell_angle_gamma   60.00000000
_chemical_formula_structural   AcRb
_chemical_formula_sum   'Ac1 Rb1'
_cell_volume   112.59565412
loop_
 _symmetry_equiv_pos_site_id
 _symmetry_equiv_pos_as_xyz
  1  'x, y, z'
loop_
 _atom_type_symbol
  Ac
  Rb
loop_
 _atom_site_type_symbol
 _atom_site_label
 _atom_site_symmetry_multiplicity
 _atom_site_fract_x
 _atom_site_fract_y
 _atom_site_fract_z
 _atom_site_occupancy
  Ac  Ac0  1  0.00000000  0.00000000  0.00000000  1
  Rb  Rb0  1  0.50000039  0.50000039  0.50000039  1
