# generated using pymatgen
data_578_Cu5Ge4
_symmetry_space_group_name_H-M   'I4/mmm'
_cell_length_a   6.20069032
_cell_length_b   6.20069032
_cell_length_c   6.20069032
_cell_angle_alpha   95.32343692
_cell_angle_beta   95.32343692
_cell_angle_gamma   144.53244614
_chemical_formula_structural   Cu5Ge4
_chemical_formula_sum   'Cu5 Ge4'
_cell_volume   131.76072595
loop_
 _symmetry_equiv_pos_site_id
 _symmetry_equiv_pos_as_xyz
  1  'x, y, z'
loop_
 _atom_type_symbol
  Cu
  Ge
loop_
 _atom_site_type_symbol
 _atom_site_label
 _atom_site_symmetry_multiplicity
 _atom_site_fract_x
 _atom_site_fract_y
 _atom_site_fract_z
 _atom_site_occupancy
  Cu  Cu0  1  0.00000000  0.00000000  0.00000000  1
  Cu  Cu1  1  0.66256762  0.33743238  0.00000000  1
  Cu  Cu2  1  0.33743238  0.66256762  0.00000000  1
  Cu  Cu3  1  0.33743238  0.33743238  0.67486477  1
  Cu  Cu4  1  0.66256762  0.66256762  0.32513523  1
  Ge  Ge0  1  0.69221075  0.00000000  0.69221075  1
  Ge  Ge1  1  0.30778925  0.00000000  0.30778925  1
  Ge  Ge2  1  1.00000000  0.30778925  0.30778925  1
  Ge  Ge3  1  1.00000000  0.69221075  0.69221075  1
