# generated using pymatgen
data_582_InBr3
_symmetry_space_group_name_H-M   'Immm'
_cell_length_a   6.70528707
_cell_length_b   6.70528707
_cell_length_c   6.70528707
_cell_angle_alpha   148.15680994
_cell_angle_beta   128.30850063
_cell_angle_gamma   62.00524814
_chemical_formula_structural   InBr3
_chemical_formula_sum   'Br3 In1'
_cell_volume   123.61251213
loop_
 _symmetry_equiv_pos_site_id
 _symmetry_equiv_pos_as_xyz
  1  'x, y, z'
loop_
 _atom_type_symbol
  Br
  In
loop_
 _atom_site_type_symbol
 _atom_site_label
 _atom_site_symmetry_multiplicity
 _atom_site_fract_x
 _atom_site_fract_y
 _atom_site_fract_z
 _atom_site_occupancy
  Br  Br0  1  0.07823764  0.07823764  1.00000000  1
  Br  Br1  1  0.75000000  0.25000000  0.50000000  1
  Br  Br2  1  0.42176236  0.42176236  0.00000000  1
  In  In0  1  0.25000000  0.75000000  0.50000000  1
