# generated using pymatgen
data_591_AlPd
_symmetry_space_group_name_H-M   'P-6m2'
_cell_length_a   2.93565300
_cell_length_b   2.93563290
_cell_length_c   3.98763600
_cell_angle_alpha   90.00000000
_cell_angle_beta   90.00000000
_cell_angle_gamma   120.00029933
_chemical_formula_structural   AlPd
_chemical_formula_sum   'Al1 Pd1'
_cell_volume   29.76125877
loop_
 _symmetry_equiv_pos_site_id
 _symmetry_equiv_pos_as_xyz
  1  'x, y, z'
loop_
 _atom_type_symbol
  Al
  Pd
loop_
 _atom_site_type_symbol
 _atom_site_label
 _atom_site_symmetry_multiplicity
 _atom_site_fract_x
 _atom_site_fract_y
 _atom_site_fract_z
 _atom_site_occupancy
  Al  Al0  1  0.66666456  0.33333302  0.75000073  1
  Pd  Pd0  1  0.33333313  0.66666535  0.25000025  1
