# generated using pymatgen
data_593_Ba2Br4
_symmetry_space_group_name_H-M   'I4/mcm'
_cell_length_a   6.68655612
_cell_length_b   6.68655612
_cell_length_c   6.68655612
_cell_angle_alpha   112.75246719
_cell_angle_beta   112.75246719
_cell_angle_gamma   103.09102021
_chemical_formula_structural   Ba2Br4
_chemical_formula_sum   'Ba2 Br4'
_cell_volume   228.02900759
loop_
 _symmetry_equiv_pos_site_id
 _symmetry_equiv_pos_as_xyz
  1  'x, y, z'
loop_
 _atom_type_symbol
  Ba
  Br
loop_
 _atom_site_type_symbol
 _atom_site_label
 _atom_site_symmetry_multiplicity
 _atom_site_fract_x
 _atom_site_fract_y
 _atom_site_fract_z
 _atom_site_occupancy
  Ba  Ba0  1  0.75000000  0.75000000  0.00000000  1
  Ba  Ba1  1  0.25000000  0.25000000  0.00000000  1
  Br  Br0  1  0.30465245  0.19534755  0.50000000  1
  Br  Br1  1  0.69534755  0.80465245  0.50000000  1
  Br  Br2  1  0.19534755  0.69534755  0.89069511  1
  Br  Br3  1  0.80465245  0.30465245  0.10930489  1
