# generated using pymatgen
data_598_K2Ge2
_symmetry_space_group_name_H-M   'Imma'
_cell_length_a   6.51301248
_cell_length_b   6.51301248
_cell_length_c   5.71435642
_cell_angle_alpha   64.09796413
_cell_angle_beta   64.09796413
_cell_angle_gamma   35.85365321
_chemical_formula_structural   K2Ge2
_chemical_formula_sum   'Ge2 K2'
_cell_volume   126.12868246
loop_
 _symmetry_equiv_pos_site_id
 _symmetry_equiv_pos_as_xyz
  1  'x, y, z'
loop_
 _atom_type_symbol
  Ge
  K
loop_
 _atom_site_type_symbol
 _atom_site_label
 _atom_site_symmetry_multiplicity
 _atom_site_fract_x
 _atom_site_fract_y
 _atom_site_fract_z
 _atom_site_occupancy
  Ge  Ge0  1  0.05832218  0.05832218  0.94096727  1
  Ge  Ge1  1  0.69167782  0.69167782  0.80903273  1
  K  K0  1  0.28318432  0.28318432  0.21480121  1
  K  K1  1  0.46681568  0.46681568  0.53519879  1
