# generated using pymatgen
data_615_Au12Sr17
_symmetry_space_group_name_H-M   'I-43m'
_cell_length_a   10.74000054
_cell_length_b   10.74000054
_cell_length_c   10.74000054
_cell_angle_alpha   109.47122063
_cell_angle_beta   109.47122063
_cell_angle_gamma   109.47122063
_chemical_formula_structural   Au12Sr17
_chemical_formula_sum   'Au12 Sr17'
_cell_volume   953.65440300
loop_
 _symmetry_equiv_pos_site_id
 _symmetry_equiv_pos_as_xyz
  1  'x, y, z'
loop_
 _atom_type_symbol
  Au
  Sr
loop_
 _atom_site_type_symbol
 _atom_site_label
 _atom_site_symmetry_multiplicity
 _atom_site_fract_x
 _atom_site_fract_y
 _atom_site_fract_z
 _atom_site_occupancy
  Au  Au0  1  0.83206334  0.22770948  0.22770948  1
  Au  Au1  1  0.16793666  0.39564614  0.39564614  1
  Au  Au2  1  0.00000000  0.60435386  0.77229052  1
  Au  Au3  1  1.00000000  0.77229052  0.60435386  1
  Au  Au4  1  0.60435386  0.00000000  0.77229052  1
  Au  Au5  1  0.77229052  0.00000000  0.60435386  1
  Au  Au6  1  0.39564614  0.16793666  0.39564614  1
  Au  Au7  1  0.22770948  0.83206334  0.22770948  1
  Au  Au8  1  0.60435386  0.77229052  0.00000000  1
  Au  Au9  1  0.77229052  0.60435386  0.00000000  1
  Au  Au10  1  0.22770948  0.22770948  0.83206334  1
  Au  Au11  1  0.39564614  0.39564614  0.16793666  1
  Sr  Sr0  1  0.29649712  0.70570068  0.70570068  1
  Sr  Sr1  1  0.70350288  0.40920356  0.40920356  1
  Sr  Sr2  1  1.00000000  0.59079644  0.29429932  1
  Sr  Sr3  1  0.00000000  0.29429932  0.59079644  1
  Sr  Sr4  1  0.59079644  0.00000000  0.29429932  1
  Sr  Sr5  1  0.29429932  0.00000000  0.59079644  1
  Sr  Sr6  1  0.40920356  0.70350288  0.40920356  1
  Sr  Sr7  1  0.70570068  0.29649712  0.70570068  1
  Sr  Sr8  1  0.59079644  0.29429932  0.00000000  1
  Sr  Sr9  1  0.29429932  0.59079644  0.00000000  1
  Sr  Sr10  1  0.70570068  0.70570068  0.29649712  1
  Sr  Sr11  1  0.40920356  0.40920356  0.70350288  1
  Sr  Sr12  1  0.30482684  0.00000000  0.00000000  1
  Sr  Sr13  1  0.69517316  0.69517316  0.69517316  1
  Sr  Sr14  1  1.00000000  0.30482684  0.00000000  1
  Sr  Sr15  1  1.00000000  0.00000000  0.30482684  1
  Sr  Sr16  1  0.00000000  0.00000000  0.00000000  1
