# generated using pymatgen
data_617_PaGe3
_symmetry_space_group_name_H-M   'Fm -3 m'
_cell_length_a   4.91003777
_cell_length_b   4.91003777
_cell_length_c   4.91003777
_cell_angle_alpha   60.00000000
_cell_angle_beta   60.00000000
_cell_angle_gamma   60.00000000
_chemical_formula_structural   PaGe3
_chemical_formula_sum   'Ge3 Pa1'
_cell_volume   83.70270626
loop_
 _symmetry_equiv_pos_site_id
 _symmetry_equiv_pos_as_xyz
  1  'x, y, z'
loop_
 _atom_type_symbol
  Ge
  Pa
loop_
 _atom_site_type_symbol
 _atom_site_label
 _atom_site_symmetry_multiplicity
 _atom_site_fract_x
 _atom_site_fract_y
 _atom_site_fract_z
 _atom_site_occupancy
  Ge  Ge0  1  0.00000000  0.00000000  0.00000000  1
  Ge  Ge1  1  0.24999996  0.24999996  0.24999996  1
  Ge  Ge2  1  0.49999993  0.49999993  0.49999993  1
  Pa  Pa0  1  0.74999989  0.74999989  0.74999989  1
