# generated using pymatgen
data_61_NpPd
_symmetry_space_group_name_H-M   'P-6m2'
_cell_length_a   2.76634110
_cell_length_b   2.76635338
_cell_length_c   5.16444949
_cell_angle_alpha   90.00000000
_cell_angle_beta   90.00000000
_cell_angle_gamma   119.99986328
_chemical_formula_structural   NpPd
_chemical_formula_sum   'Np1 Pd1'
_cell_volume   34.22698549
loop_
 _symmetry_equiv_pos_site_id
 _symmetry_equiv_pos_as_xyz
  1  'x, y, z'
loop_
 _atom_type_symbol
  Np
  Pd
loop_
 _atom_site_type_symbol
 _atom_site_label
 _atom_site_symmetry_multiplicity
 _atom_site_fract_x
 _atom_site_fract_y
 _atom_site_fract_z
 _atom_site_occupancy
  Np  Np0  1  0.66666716  0.33333331  0.75000000  1
  Pd  Pd0  1  0.33333284  0.66666669  0.25000000  1
