# generated using pymatgen
data_633_Fe4V12
_symmetry_space_group_name_H-M   'Pnma'
_cell_length_a   4.96175611
_cell_length_b   8.61669663
_cell_length_c   4.75734313
_cell_angle_alpha   90.00000000
_cell_angle_beta   90.00000000
_cell_angle_gamma   90.00000000
_chemical_formula_structural   Fe4V12
_chemical_formula_sum   'Fe4 V12'
_cell_volume   203.39519676
loop_
 _symmetry_equiv_pos_site_id
 _symmetry_equiv_pos_as_xyz
  1  'x, y, z'
loop_
 _atom_type_symbol
  Fe
  V
loop_
 _atom_site_type_symbol
 _atom_site_label
 _atom_site_symmetry_multiplicity
 _atom_site_fract_x
 _atom_site_fract_y
 _atom_site_fract_z
 _atom_site_occupancy
  Fe  Fe0  1  0.04240206  0.75000000  0.63577941  1
  Fe  Fe1  1  0.45759794  0.25000000  0.13577941  1
  Fe  Fe2  1  0.54240206  0.75000000  0.86422059  1
  Fe  Fe3  1  0.95759794  0.25000000  0.36422059  1
  V  V0  1  0.01274588  0.25000000  0.86572471  1
  V  V1  1  0.23183929  0.01987899  0.36963387  1
  V  V2  1  0.23183929  0.48012101  0.36963387  1
  V  V3  1  0.26816071  0.51987899  0.86963387  1
  V  V4  1  0.26816071  0.98012101  0.86963387  1
  V  V5  1  0.48725412  0.75000000  0.36572471  1
  V  V6  1  0.51274588  0.25000000  0.63427529  1
  V  V7  1  0.73183929  0.01987899  0.13036613  1
  V  V8  1  0.73183929  0.48012101  0.13036613  1
  V  V9  1  0.76816071  0.51987899  0.63036613  1
  V  V10  1  0.76816071  0.98012101  0.63036613  1
  V  V11  1  0.98725412  0.75000000  0.13427529  1
