# generated using pymatgen
data_634_Al2Th4
_symmetry_space_group_name_H-M   'I4/mcm'
_cell_length_a   5.72444559
_cell_length_b   6.13626398
_cell_length_c   6.13626398
_cell_angle_alpha   102.56634120
_cell_angle_beta   117.80370768
_cell_angle_gamma   62.19629232
_chemical_formula_structural   Al2Th4
_chemical_formula_sum   'Al2 Th4'
_cell_volume   168.65027486
loop_
 _symmetry_equiv_pos_site_id
 _symmetry_equiv_pos_as_xyz
  1  'x, y, z'
loop_
 _atom_type_symbol
  Al
  Th
loop_
 _atom_site_type_symbol
 _atom_site_label
 _atom_site_symmetry_multiplicity
 _atom_site_fract_x
 _atom_site_fract_y
 _atom_site_fract_z
 _atom_site_occupancy
  Al  Al0  1  0.75000000  0.00000000  0.00000000  1
  Al  Al1  1  0.25000000  0.00000000  0.00000000  1
  Th  Th0  1  0.34221762  0.50000000  0.18443524  1
  Th  Th1  1  0.15778238  0.18443524  0.50000000  1
  Th  Th2  1  0.84221762  0.81556476  0.50000000  1
  Th  Th3  1  0.65778238  0.50000000  0.81556476  1
