# generated using pymatgen
data_637_KAs2
_symmetry_space_group_name_H-M   'I4/mmm'
_cell_length_a   6.45346136
_cell_length_b   6.45346136
_cell_length_c   6.45346136
_cell_angle_alpha   147.59274254
_cell_angle_beta   147.58963176
_cell_angle_gamma   46.48922349
_chemical_formula_structural   KAs2
_chemical_formula_sum   'As2 K1'
_cell_volume   76.92776624
loop_
 _symmetry_equiv_pos_site_id
 _symmetry_equiv_pos_as_xyz
  1  'x, y, z'
loop_
 _atom_type_symbol
  As
  K
loop_
 _atom_site_type_symbol
 _atom_site_label
 _atom_site_symmetry_multiplicity
 _atom_site_fract_x
 _atom_site_fract_y
 _atom_site_fract_z
 _atom_site_occupancy
  As  As0  1  0.71143285  0.71143285  0.00000000  1
  As  As1  1  0.28856715  0.28856715  0.00000000  1
  K  K0  1  0.00000000  0.00000000  0.00000000  1
