# generated using pymatgen
data_641_Al6Rh6
_symmetry_space_group_name_H-M   'I4/mmm'
_cell_length_a   4.06932813
_cell_length_b   10.69305818
_cell_length_c   4.06932813
_cell_angle_alpha   100.96597733
_cell_angle_beta   89.99955031
_cell_angle_gamma   100.96597725
_chemical_formula_structural   Al6Rh6
_chemical_formula_sum   'Al6 Rh6'
_cell_volume   170.54320852
loop_
 _symmetry_equiv_pos_site_id
 _symmetry_equiv_pos_as_xyz
  1  'x, y, z'
loop_
 _atom_type_symbol
  Al
  Rh
loop_
 _atom_site_type_symbol
 _atom_site_label
 _atom_site_symmetry_multiplicity
 _atom_site_fract_x
 _atom_site_fract_y
 _atom_site_fract_z
 _atom_site_occupancy
  Al  Al0  1  0.00001618  0.00000000  0.99998382  1
  Al  Al1  1  0.60057220  0.20101213  0.10057220  1
  Al  Al2  1  0.75000000  0.50000000  0.25000000  1
  Al  Al3  1  0.89942780  0.79898787  0.39942780  1
  Al  Al4  1  0.49998382  1.00000000  0.50001618  1
  Al  Al5  1  0.25000000  0.50000000  0.75000000  1
  Rh  Rh0  1  0.17424005  0.34846026  0.17424000  1
  Rh  Rh1  1  0.32575995  0.65153974  0.32576000  1
  Rh  Rh2  1  0.07372700  0.14752866  0.57372700  1
  Rh  Rh3  1  0.67424000  0.34846026  0.67424005  1
  Rh  Rh4  1  0.82576000  0.65153974  0.82575995  1
  Rh  Rh5  1  0.42627300  0.85247134  0.92627300  1
