# generated using pymatgen
data_646_Al3Sb
_symmetry_space_group_name_H-M   'Cmmm'
_cell_length_a   3.05394342
_cell_length_b   3.05394342
_cell_length_c   8.53922070
_cell_angle_alpha   90.00000000
_cell_angle_beta   90.00000000
_cell_angle_gamma   92.23330081
_chemical_formula_structural   Al3Sb
_chemical_formula_sum   'Al3 Sb1'
_cell_volume   79.58115022
loop_
 _symmetry_equiv_pos_site_id
 _symmetry_equiv_pos_as_xyz
  1  'x, y, z'
loop_
 _atom_type_symbol
  Al
  Sb
loop_
 _atom_site_type_symbol
 _atom_site_label
 _atom_site_symmetry_multiplicity
 _atom_site_fract_x
 _atom_site_fract_y
 _atom_site_fract_z
 _atom_site_occupancy
  Al  Al0  1  0.00000000  0.00000000  0.96641796  1
  Al  Al1  1  0.50000000  0.50000000  0.75000000  1
  Al  Al2  1  0.00000000  0.00000000  0.53358204  1
  Sb  Sb0  1  0.50000000  0.50000000  0.25000000  1
