# generated using pymatgen
data_647_PtTh
_symmetry_space_group_name_H-M   'R -3 m'
_cell_length_a   4.46114146
_cell_length_b   4.46114146
_cell_length_c   4.46114116
_cell_angle_alpha   50.81350075
_cell_angle_beta   50.81350075
_cell_angle_gamma   50.81350464
_chemical_formula_structural   PtTh
_chemical_formula_sum   'Pt1 Th1'
_cell_volume   49.17852386
loop_
 _symmetry_equiv_pos_site_id
 _symmetry_equiv_pos_as_xyz
  1  'x, y, z'
loop_
 _atom_type_symbol
  Pt
  Th
loop_
 _atom_site_type_symbol
 _atom_site_label
 _atom_site_symmetry_multiplicity
 _atom_site_fract_x
 _atom_site_fract_y
 _atom_site_fract_z
 _atom_site_occupancy
  Pt  Pt0  1  0.00000000  0.00000000  0.00000000  1
  Th  Th0  1  0.50000000  0.50000000  0.50000000  1
