# generated using pymatgen
data_652_AlP4
_symmetry_space_group_name_H-M   'I4/m'
_cell_length_a   5.82878659
_cell_length_b   5.82878659
_cell_length_c   5.82878659
_cell_angle_alpha   94.38154969
_cell_angle_beta   94.38154969
_cell_angle_gamma   147.90886068
_chemical_formula_structural   AlP4
_chemical_formula_sum   'Al1 P4'
_cell_volume   101.10909232
loop_
 _symmetry_equiv_pos_site_id
 _symmetry_equiv_pos_as_xyz
  1  'x, y, z'
loop_
 _atom_type_symbol
  Al
  P
loop_
 _atom_site_type_symbol
 _atom_site_label
 _atom_site_symmetry_multiplicity
 _atom_site_fract_x
 _atom_site_fract_y
 _atom_site_fract_z
 _atom_site_occupancy
  Al  Al0  1  0.00000000  0.00000000  0.00000000  1
  P  P0  1  0.83925617  0.27456428  0.11382045  1
  P  P1  1  0.27456428  0.16074383  0.43530811  1
  P  P2  1  0.16074383  0.72543572  0.88617955  1
  P  P3  1  0.72543572  0.83925617  0.56469189  1
