# generated using pymatgen
data_654_Al2In4
_symmetry_space_group_name_H-M   'Cmcm'
_cell_length_a   8.44745728
_cell_length_b   8.44745728
_cell_length_c   5.20615638
_cell_angle_alpha   90.00000000
_cell_angle_beta   90.00000000
_cell_angle_gamma   157.16393863
_chemical_formula_structural   Al2In4
_chemical_formula_sum   'Al2 In4'
_cell_volume   144.18101256
loop_
 _symmetry_equiv_pos_site_id
 _symmetry_equiv_pos_as_xyz
  1  'x, y, z'
loop_
 _atom_type_symbol
  Al
  In
loop_
 _atom_site_type_symbol
 _atom_site_label
 _atom_site_symmetry_multiplicity
 _atom_site_fract_x
 _atom_site_fract_y
 _atom_site_fract_z
 _atom_site_occupancy
  Al  Al0  1  0.66406802  0.33593198  0.00000000  1
  Al  Al1  1  0.44704309  0.55295691  0.50000000  1
  In  In0  1  0.99823374  0.00176626  0.00000000  1
  In  In1  1  0.32705817  0.67294183  0.00000000  1
  In  In2  1  0.78405294  0.21594706  0.50000000  1
  In  In3  1  0.11287738  0.88712262  0.50000000  1
