# generated using pymatgen
data_655_PdRh2
_symmetry_space_group_name_H-M   'I4/mmm'
_cell_length_a   6.11503566
_cell_length_b   6.11503566
_cell_length_c   6.11503566
_cell_angle_alpha   154.05872910
_cell_angle_beta   154.05872910
_cell_angle_gamma   37.01424859
_chemical_formula_structural   PdRh2
_chemical_formula_sum   'Pd1 Rh2'
_cell_volume   43.69594123
loop_
 _symmetry_equiv_pos_site_id
 _symmetry_equiv_pos_as_xyz
  1  'x, y, z'
loop_
 _atom_type_symbol
  Pd
  Rh
loop_
 _atom_site_type_symbol
 _atom_site_label
 _atom_site_symmetry_multiplicity
 _atom_site_fract_x
 _atom_site_fract_y
 _atom_site_fract_z
 _atom_site_occupancy
  Pd  Pd0  1  0.00000000  0.00000000  0.00000000  1
  Rh  Rh0  1  0.32859876  0.32859876  0.00000000  1
  Rh  Rh1  1  0.67140124  0.67140124  0.00000000  1
