# generated using pymatgen
data_658_AgAl5
_symmetry_space_group_name_H-M   'P4/mmm'
_cell_length_a   2.87836237
_cell_length_b   2.87836237
_cell_length_c   12.07740328
_cell_angle_alpha   90.00000000
_cell_angle_beta   90.00000000
_cell_angle_gamma   90.00000000
_chemical_formula_structural   AgAl5
_chemical_formula_sum   'Ag1 Al5'
_cell_volume   100.06092304
loop_
 _symmetry_equiv_pos_site_id
 _symmetry_equiv_pos_as_xyz
  1  'x, y, z'
loop_
 _atom_type_symbol
  Ag
  Al
loop_
 _atom_site_type_symbol
 _atom_site_label
 _atom_site_symmetry_multiplicity
 _atom_site_fract_x
 _atom_site_fract_y
 _atom_site_fract_z
 _atom_site_occupancy
  Ag  Ag0  1  0.50000000  0.50000000  0.00000000  1
  Al  Al0  1  0.00000000  0.00000000  0.83284664  1
  Al  Al1  1  0.00000000  0.00000000  0.16715336  1
  Al  Al2  1  0.50000000  0.50000000  0.66549619  1
  Al  Al3  1  0.50000000  0.50000000  0.33450381  1
  Al  Al4  1  0.00000000  0.00000000  0.50000000  1
