# generated using pymatgen
data_659_Ce4Fe34
_symmetry_space_group_name_H-M   'P6_3/mmc'
_cell_length_a   8.52337800
_cell_length_b   8.52292778
_cell_length_c   8.31123200
_cell_angle_alpha   90.00000000
_cell_angle_beta   90.00000000
_cell_angle_gamma   120.00174744
_chemical_formula_structural   Ce4Fe34
_chemical_formula_sum   'Ce4 Fe34'
_cell_volume   522.86424829
loop_
 _symmetry_equiv_pos_site_id
 _symmetry_equiv_pos_as_xyz
  1  'x, y, z'
loop_
 _atom_type_symbol
  Ce
  Fe
loop_
 _atom_site_type_symbol
 _atom_site_label
 _atom_site_symmetry_multiplicity
 _atom_site_fract_x
 _atom_site_fract_y
 _atom_site_fract_z
 _atom_site_occupancy
  Ce  Ce0  1  0.00000000  0.00000000  0.25000023  1
  Ce  Ce1  1  0.66669089  0.33338157  0.25000023  1
  Ce  Ce2  1  0.00000000  0.00000000  0.74999950  1
  Ce  Ce3  1  0.33330976  0.66661952  0.74999950  1
  Fe  Fe0  1  0.50000011  0.00000000  0.00000000  1
  Fe  Fe1  1  1.00000000  0.49999987  0.00000000  1
  Fe  Fe2  1  0.49999940  0.49999987  0.00000000  1
  Fe  Fe3  1  0.33357533  0.16679036  0.01311959  1
  Fe  Fe4  1  0.83321408  0.16679036  0.01311959  1
  Fe  Fe5  1  0.83321639  0.66643255  0.01312922  1
  Fe  Fe6  1  0.33332941  0.66665881  0.10748346  1
  Fe  Fe7  1  0.04753484  0.37737324  0.25000023  1
  Fe  Fe8  1  0.32983840  0.37737324  0.25000023  1
  Fe  Fe9  1  0.04754909  0.67014482  0.25000023  1
  Fe  Fe10  1  0.62259573  0.67014482  0.25000023  1
  Fe  Fe11  1  0.32983910  0.95247057  0.25000023  1
  Fe  Fe12  1  0.62263146  0.95247057  0.25000023  1
  Fe  Fe13  1  0.33332941  0.66665881  0.39251701  1
  Fe  Fe14  1  0.83321639  0.66643255  0.48687125  1
  Fe  Fe15  1  0.33357533  0.16679036  0.48688087  1
  Fe  Fe16  1  0.83321408  0.16679036  0.48688087  1
  Fe  Fe17  1  0.50000011  0.00000000  0.50000047  1
  Fe  Fe18  1  1.00000000  0.49999987  0.50000047  1
  Fe  Fe19  1  0.49999940  0.49999987  0.50000047  1
  Fe  Fe20  1  0.16678590  0.83320937  0.51311886  1
  Fe  Fe21  1  0.66642347  0.83320937  0.51311886  1
  Fe  Fe22  1  0.16678359  0.33356718  0.51312969  1
  Fe  Fe23  1  0.66667057  0.33334092  0.60748273  1
  Fe  Fe24  1  0.37736734  0.04752916  0.74999950  1
  Fe  Fe25  1  0.67016087  0.04752916  0.74999950  1
  Fe  Fe26  1  0.37740425  0.32985492  0.74999950  1
  Fe  Fe27  1  0.95245089  0.32985492  0.74999950  1
  Fe  Fe28  1  0.67016157  0.62262649  0.74999950  1
  Fe  Fe29  1  0.95246513  0.62262649  0.74999950  1
  Fe  Fe30  1  0.66667057  0.33334092  0.89251748  1
  Fe  Fe31  1  0.16678359  0.33356718  0.98687078  1
  Fe  Fe32  1  0.16678590  0.83320937  0.98688041  1
  Fe  Fe33  1  0.66642347  0.83320937  0.98688041  1
