# generated using pymatgen
data_65_Al4P2
_symmetry_space_group_name_H-M   'I4_1/amd'
_cell_length_a   10.09340524
_cell_length_b   10.09340524
_cell_length_c   10.09340524
_cell_angle_alpha   161.55785263
_cell_angle_beta   161.55785263
_cell_angle_gamma   26.19626866
_chemical_formula_structural   Al4P2
_chemical_formula_sum   'Al4 P2'
_cell_volume   102.87019585
loop_
 _symmetry_equiv_pos_site_id
 _symmetry_equiv_pos_as_xyz
  1  'x, y, z'
loop_
 _atom_type_symbol
  Al
  P
loop_
 _atom_site_type_symbol
 _atom_site_label
 _atom_site_symmetry_multiplicity
 _atom_site_fract_x
 _atom_site_fract_y
 _atom_site_fract_z
 _atom_site_occupancy
  Al  Al0  1  0.56749688  0.56749688  0.00000000  1
  Al  Al1  1  0.68250312  0.18250312  0.50000000  1
  Al  Al2  1  0.43250312  0.43250312  0.00000000  1
  Al  Al3  1  0.81749688  0.31749688  0.50000000  1
  P  P0  1  0.00000000  0.00000000  0.00000000  1
  P  P1  1  0.25000000  0.75000000  0.50000000  1
