# generated using pymatgen
data_661_CrTh
_symmetry_space_group_name_H-M   'P-6m2'
_cell_length_a   3.38983459
_cell_length_b   3.38983255
_cell_length_c   4.85568269
_cell_angle_alpha   90.00000000
_cell_angle_beta   90.00000000
_cell_angle_gamma   120.00001978
_chemical_formula_structural   CrTh
_chemical_formula_sum   'Cr1 Th1'
_cell_volume   48.32118728
loop_
 _symmetry_equiv_pos_site_id
 _symmetry_equiv_pos_as_xyz
  1  'x, y, z'
loop_
 _atom_type_symbol
  Cr
  Th
loop_
 _atom_site_type_symbol
 _atom_site_label
 _atom_site_symmetry_multiplicity
 _atom_site_fract_x
 _atom_site_fract_y
 _atom_site_fract_z
 _atom_site_occupancy
  Cr  Cr0  1  0.66666763  0.33333427  0.75000000  1
  Th  Th0  1  0.33333237  0.66666573  0.25000000  1
