# generated using pymatgen
data_663_Ni2Sn
_symmetry_space_group_name_H-M   'I4/mmm'
_cell_length_a   4.59819682
_cell_length_b   4.59819682
_cell_length_c   4.59819682
_cell_angle_alpha   138.57083074
_cell_angle_beta   138.57083074
_cell_angle_gamma   60.02986005
_chemical_formula_structural   Ni2Sn
_chemical_formula_sum   'Ni2 Sn1'
_cell_volume   42.12984450
loop_
 _symmetry_equiv_pos_site_id
 _symmetry_equiv_pos_as_xyz
  1  'x, y, z'
loop_
 _atom_type_symbol
  Ni
  Sn
loop_
 _atom_site_type_symbol
 _atom_site_label
 _atom_site_symmetry_multiplicity
 _atom_site_fract_x
 _atom_site_fract_y
 _atom_site_fract_z
 _atom_site_occupancy
  Ni  Ni0  1  0.66833968  0.66833968  0.00000000  1
  Ni  Ni1  1  0.33166032  0.33166032  0.00000000  1
  Sn  Sn0  1  0.00000000  0.00000000  0.00000000  1
