# generated using pymatgen
data_669_Cr8Nb
_symmetry_space_group_name_H-M   'I4/mmm'
_cell_length_a   4.27502772
_cell_length_b   5.56399576
_cell_length_c   5.56399576
_cell_angle_alpha   98.48704054
_cell_angle_beta   112.59215124
_cell_angle_gamma   67.40784876
_chemical_formula_structural   Cr8Nb
_chemical_formula_sum   'Cr8 Nb1'
_cell_volume   112.81406254
loop_
 _symmetry_equiv_pos_site_id
 _symmetry_equiv_pos_as_xyz
  1  'x, y, z'
loop_
 _atom_type_symbol
  Cr
  Nb
loop_
 _atom_site_type_symbol
 _atom_site_label
 _atom_site_symmetry_multiplicity
 _atom_site_fract_x
 _atom_site_fract_y
 _atom_site_fract_z
 _atom_site_occupancy
  Cr  Cr0  1  1.00000000  0.34699709  0.34699709  1
  Cr  Cr1  1  0.00000000  0.65300291  0.65300291  1
  Cr  Cr2  1  0.34699709  0.65300291  0.34699709  1
  Cr  Cr3  1  0.32330150  0.00000000  0.64660301  1
  Cr  Cr4  1  0.32330150  0.35339699  0.00000000  1
  Cr  Cr5  1  0.65300291  0.34699709  0.65300291  1
  Cr  Cr6  1  0.67669850  0.64660301  0.00000000  1
  Cr  Cr7  1  0.67669850  0.00000000  0.35339699  1
  Nb  Nb0  1  0.00000000  0.00000000  0.00000000  1
