# generated using pymatgen
data_670_Nb2P4
_symmetry_space_group_name_H-M   'I4/mcm'
_cell_length_a   4.96833229
_cell_length_b   4.96833229
_cell_length_c   4.96833229
_cell_angle_alpha   111.22126552
_cell_angle_beta   111.22126552
_cell_angle_gamma   106.02512402
_chemical_formula_structural   Nb2P4
_chemical_formula_sum   'Nb2 P4'
_cell_volume   94.15410117
loop_
 _symmetry_equiv_pos_site_id
 _symmetry_equiv_pos_as_xyz
  1  'x, y, z'
loop_
 _atom_type_symbol
  Nb
  P
loop_
 _atom_site_type_symbol
 _atom_site_label
 _atom_site_symmetry_multiplicity
 _atom_site_fract_x
 _atom_site_fract_y
 _atom_site_fract_z
 _atom_site_occupancy
  Nb  Nb0  1  0.75000000  0.75000000  0.00000000  1
  Nb  Nb1  1  0.25000000  0.25000000  0.00000000  1
  P  P0  1  0.36212270  0.13787730  0.50000000  1
  P  P1  1  0.63787730  0.86212270  0.50000000  1
  P  P2  1  0.13787730  0.63787730  0.77575459  1
  P  P3  1  0.86212270  0.36212270  0.22424541  1
