# generated using pymatgen
data_678_Na4Pt8
_symmetry_space_group_name_H-M   'Pnma'
_cell_length_a   5.67130700
_cell_length_b   4.02096064
_cell_length_c   8.63777080
_cell_angle_alpha   90.00000000
_cell_angle_beta   90.00000000
_cell_angle_gamma   90.00000000
_chemical_formula_structural   Na4Pt8
_chemical_formula_sum   'Na4 Pt8'
_cell_volume   196.97660831
loop_
 _symmetry_equiv_pos_site_id
 _symmetry_equiv_pos_as_xyz
  1  'x, y, z'
loop_
 _atom_type_symbol
  Na
  Pt
loop_
 _atom_site_type_symbol
 _atom_site_label
 _atom_site_symmetry_multiplicity
 _atom_site_fract_x
 _atom_site_fract_y
 _atom_site_fract_z
 _atom_site_occupancy
  Na  Na0  1  0.09120381  0.25000000  0.92540707  1
  Na  Na1  1  0.40879619  0.75000000  0.42540707  1
  Na  Na2  1  0.59120381  0.25000000  0.57459293  1
  Na  Na3  1  0.90879619  0.75000000  0.07459293  1
  Pt  Pt0  1  0.17356781  0.25000000  0.25917420  1
  Pt  Pt1  1  0.08408503  0.25000000  0.59358191  1
  Pt  Pt2  1  0.41591497  0.75000000  0.09358191  1
  Pt  Pt3  1  0.32643219  0.75000000  0.75917420  1
  Pt  Pt4  1  0.67356781  0.25000000  0.24082580  1
  Pt  Pt5  1  0.58408503  0.25000000  0.90641809  1
  Pt  Pt6  1  0.91591497  0.75000000  0.40641809  1
  Pt  Pt7  1  0.82643219  0.75000000  0.74082580  1
