# generated using pymatgen
data_679_GaMn2
_symmetry_space_group_name_H-M   'I4/mmm'
_cell_length_a   4.91559975
_cell_length_b   4.91559975
_cell_length_c   5.59499679
_cell_angle_alpha   73.47054646
_cell_angle_beta   73.47054646
_cell_angle_gamma   33.08944248
_chemical_formula_structural   GaMn2
_chemical_formula_sum   'Ga2 Mn4'
_cell_volume   70.48233575
loop_
 _symmetry_equiv_pos_site_id
 _symmetry_equiv_pos_as_xyz
  1  'x, y, z'
loop_
 _atom_type_symbol
  Ga
  Mn
loop_
 _atom_site_type_symbol
 _atom_site_label
 _atom_site_symmetry_multiplicity
 _atom_site_fract_x
 _atom_site_fract_y
 _atom_site_fract_z
 _atom_site_occupancy
  Ga  Ga0  1  0.50006107  0.50006107  0.74992070  1
  Ga  Ga1  1  0.49993893  0.49993893  0.25007930  1
  Mn  Mn0  1  0.82401391  0.82401391  0.08789194  1
  Mn  Mn1  1  0.17598609  0.17598609  0.91210806  1
  Mn  Mn2  1  0.82393439  0.82393439  0.58809056  1
  Mn  Mn3  1  0.17606561  0.17606561  0.41190944  1
