# generated using pymatgen
data_686_Cu4Ge2
_symmetry_space_group_name_H-M   'Pnnm'
_cell_length_a   4.17804044
_cell_length_b   2.77275633
_cell_length_c   7.15472254
_cell_angle_alpha   90.00000000
_cell_angle_beta   90.00000000
_cell_angle_gamma   90.00000000
_chemical_formula_structural   Cu4Ge2
_chemical_formula_sum   'Cu4 Ge2'
_cell_volume   82.88522890
loop_
 _symmetry_equiv_pos_site_id
 _symmetry_equiv_pos_as_xyz
  1  'x, y, z'
loop_
 _atom_type_symbol
  Cu
  Ge
loop_
 _atom_site_type_symbol
 _atom_site_label
 _atom_site_symmetry_multiplicity
 _atom_site_fract_x
 _atom_site_fract_y
 _atom_site_fract_z
 _atom_site_occupancy
  Cu  Cu0  1  0.00000000  0.27587100  0.66913863  1
  Cu  Cu1  1  0.00000000  0.72412900  0.33086137  1
  Cu  Cu2  1  0.50000000  0.77587100  0.83086137  1
  Cu  Cu3  1  0.50000000  0.22412900  0.16913863  1
  Ge  Ge0  1  0.00000000  0.00000000  0.00000000  1
  Ge  Ge1  1  0.50000000  0.50000000  0.50000000  1
