# generated using pymatgen
data_687_In3Ni
_symmetry_space_group_name_H-M   'Fm -3 m'
_cell_length_a   4.96276958
_cell_length_b   4.96276958
_cell_length_c   4.96276958
_cell_angle_alpha   60.00000000
_cell_angle_beta   60.00000000
_cell_angle_gamma   60.00000000
_chemical_formula_structural   In3Ni
_chemical_formula_sum   'In3 Ni1'
_cell_volume   86.42857157
loop_
 _symmetry_equiv_pos_site_id
 _symmetry_equiv_pos_as_xyz
  1  'x, y, z'
loop_
 _atom_type_symbol
  In
  Ni
loop_
 _atom_site_type_symbol
 _atom_site_label
 _atom_site_symmetry_multiplicity
 _atom_site_fract_x
 _atom_site_fract_y
 _atom_site_fract_z
 _atom_site_occupancy
  In  In0  1  0.00000000  0.00000000  0.00000000  1
  In  In1  1  0.24999919  0.24999919  0.24999919  1
  In  In2  1  0.49999980  0.49999980  0.49999980  1
  Ni  Ni0  1  0.74999899  0.74999899  0.74999899  1
