# generated using pymatgen
data_690_Ag6Al2
_symmetry_space_group_name_H-M   'P4/nmm'
_cell_length_a   16.48109523
_cell_length_b   2.90930164
_cell_length_c   2.90930164
_cell_angle_alpha   90.00000000
_cell_angle_beta   90.00000000
_cell_angle_gamma   90.00000000
_chemical_formula_structural   Ag6Al2
_chemical_formula_sum   'Ag6 Al2'
_cell_volume   139.49658388
loop_
 _symmetry_equiv_pos_site_id
 _symmetry_equiv_pos_as_xyz
  1  'x, y, z'
loop_
 _atom_type_symbol
  Ag
  Al
loop_
 _atom_site_type_symbol
 _atom_site_label
 _atom_site_symmetry_multiplicity
 _atom_site_fract_x
 _atom_site_fract_y
 _atom_site_fract_z
 _atom_site_occupancy
  Ag  Ag0  1  0.99008506  0.00000000  0.00000000  1
  Ag  Ag1  1  0.12042174  0.50000000  0.50000000  1
  Ag  Ag2  1  0.24849833  0.00000000  0.00000000  1
  Ag  Ag3  1  0.37650167  0.50000000  0.50000000  1
  Ag  Ag4  1  0.50457826  0.00000000  0.00000000  1
  Ag  Ag5  1  0.63491494  0.50000000  0.50000000  1
  Al  Al0  1  0.75269979  0.00000000  0.00000000  1
  Al  Al1  1  0.87230021  0.50000000  0.50000000  1
