# generated using pymatgen
data_695_In4Br2
_symmetry_space_group_name_H-M   'C2/m'
_cell_length_a   6.23680170
_cell_length_b   6.23680170
_cell_length_c   8.05385032
_cell_angle_alpha   74.96102543
_cell_angle_beta   74.96102543
_cell_angle_gamma   38.59483308
_chemical_formula_structural   In4Br2
_chemical_formula_sum   'Br2 In4'
_cell_volume   187.89415643
loop_
 _symmetry_equiv_pos_site_id
 _symmetry_equiv_pos_as_xyz
  1  'x, y, z'
loop_
 _atom_type_symbol
  Br
  In
loop_
 _atom_site_type_symbol
 _atom_site_label
 _atom_site_symmetry_multiplicity
 _atom_site_fract_x
 _atom_site_fract_y
 _atom_site_fract_z
 _atom_site_occupancy
  Br  Br0  1  0.37732233  0.37732233  0.29814962  1
  Br  Br1  1  0.34489989  0.34489989  0.75740593  1
  In  In0  1  0.99812293  0.99812293  0.02425914  1
  In  In1  1  0.60898765  0.60898765  0.68205180  1
  In  In2  1  0.11323457  0.11323457  0.37350375  1
  In  In3  1  0.72409929  0.72409929  0.03129641  1
