# generated using pymatgen
data_697_Ge2P6
_symmetry_space_group_name_H-M   'Cmcm'
_cell_length_a   7.24171077
_cell_length_b   7.24171077
_cell_length_c   4.02786133
_cell_angle_alpha   90.00000000
_cell_angle_beta   90.00000000
_cell_angle_gamma   109.28878444
_chemical_formula_structural   Ge2P6
_chemical_formula_sum   'Ge2 P6'
_cell_volume   199.37331660
loop_
 _symmetry_equiv_pos_site_id
 _symmetry_equiv_pos_as_xyz
  1  'x, y, z'
loop_
 _atom_type_symbol
  Ge
  P
loop_
 _atom_site_type_symbol
 _atom_site_label
 _atom_site_symmetry_multiplicity
 _atom_site_fract_x
 _atom_site_fract_y
 _atom_site_fract_z
 _atom_site_occupancy
  Ge  Ge0  1  0.68319045  0.31680955  0.75000000  1
  Ge  Ge1  1  0.31680955  0.68319045  0.25000000  1
  P  P0  1  0.18167539  0.81832461  0.75000000  1
  P  P1  1  0.81832461  0.18167539  0.25000000  1
  P  P2  1  0.73748782  0.99665158  0.75000000  1
  P  P3  1  0.26251218  0.00334842  0.25000000  1
  P  P4  1  0.99665158  0.73748782  0.25000000  1
  P  P5  1  0.00334842  0.26251218  0.75000000  1
