# generated using pymatgen
data_699_NbW3
_symmetry_space_group_name_H-M   'Immm'
_cell_length_a   4.54126607
_cell_length_b   5.33464954
_cell_length_c   3.21103126
_cell_angle_alpha   72.48473350
_cell_angle_beta   90.00000000
_cell_angle_gamma   115.19109456
_chemical_formula_structural   NbW3
_chemical_formula_sum   'Nb1 W3'
_cell_volume   66.38486465
loop_
 _symmetry_equiv_pos_site_id
 _symmetry_equiv_pos_as_xyz
  1  'x, y, z'
loop_
 _atom_type_symbol
  Nb
  W
loop_
 _atom_site_type_symbol
 _atom_site_label
 _atom_site_symmetry_multiplicity
 _atom_site_fract_x
 _atom_site_fract_y
 _atom_site_fract_z
 _atom_site_occupancy
  Nb  Nb0  1  0.00000000  0.00000000  0.00000000  1
  W  W0  1  0.25239811  0.50479623  0.24760189  1
  W  W1  1  0.50000000  0.00000000  0.50000000  1
  W  W2  1  0.74760189  0.49520377  0.75239811  1
