# generated using pymatgen
data_700_BaV2
_symmetry_space_group_name_H-M   'I4/mmm'
_cell_length_a   6.69100848
_cell_length_b   6.69100848
_cell_length_c   6.69100848
_cell_angle_alpha   151.55315517
_cell_angle_beta   151.29603484
_cell_angle_gamma   40.85457347
_chemical_formula_structural   BaV2
_chemical_formula_sum   'Ba1 V2'
_cell_volume   68.38766552
loop_
 _symmetry_equiv_pos_site_id
 _symmetry_equiv_pos_as_xyz
  1  'x, y, z'
loop_
 _atom_type_symbol
  Ba
  V
loop_
 _atom_site_type_symbol
 _atom_site_label
 _atom_site_symmetry_multiplicity
 _atom_site_fract_x
 _atom_site_fract_y
 _atom_site_fract_z
 _atom_site_occupancy
  Ba  Ba0  1  0.00000000  0.00000000  0.00000000  1
  V  V0  1  0.28245226  0.28245226  0.00000000  1
  V  V1  1  0.71754774  0.71754774  0.00000000  1
