# generated using pymatgen
data_702_Al2K2
_symmetry_space_group_name_H-M   'Cmcm'
_cell_length_a   6.59791976
_cell_length_b   6.59791976
_cell_length_c   4.69482513
_cell_angle_alpha   90.00000000
_cell_angle_beta   90.00000000
_cell_angle_gamma   128.61895718
_chemical_formula_structural   Al2K2
_chemical_formula_sum   'Al2 K2'
_cell_volume   159.68315026
loop_
 _symmetry_equiv_pos_site_id
 _symmetry_equiv_pos_as_xyz
  1  'x, y, z'
loop_
 _atom_type_symbol
  Al
  K
loop_
 _atom_site_type_symbol
 _atom_site_label
 _atom_site_symmetry_multiplicity
 _atom_site_fract_x
 _atom_site_fract_y
 _atom_site_fract_z
 _atom_site_occupancy
  Al  Al0  1  0.03932932  0.96067068  0.25000000  1
  Al  Al1  1  0.96067068  0.03932932  0.75000000  1
  K  K0  1  0.35200761  0.64799239  0.25000000  1
  K  K1  1  0.64799239  0.35200761  0.75000000  1
