# generated using pymatgen
data_705_P16As8
_symmetry_space_group_name_H-M   'Fd -3 m'
_cell_length_a   9.69319826
_cell_length_b   9.69319826
_cell_length_c   9.69319826
_cell_angle_alpha   60.00000000
_cell_angle_beta   60.00000000
_cell_angle_gamma   60.00000000
_chemical_formula_structural   P16As8
_chemical_formula_sum   'As8 P16'
_cell_volume   644.00062524
loop_
 _symmetry_equiv_pos_site_id
 _symmetry_equiv_pos_as_xyz
  1  'x, y, z'
loop_
 _atom_type_symbol
  As
  P
loop_
 _atom_site_type_symbol
 _atom_site_label
 _atom_site_symmetry_multiplicity
 _atom_site_fract_x
 _atom_site_fract_y
 _atom_site_fract_z
 _atom_site_occupancy
  As  As0  1  0.72978327  0.72978327  0.81065018  1
  As  As1  1  0.72978327  0.72978327  0.22978327  1
  As  As2  1  0.72978327  0.31065018  0.22978327  1
  As  As3  1  0.31065018  0.72978327  0.22978327  1
  As  As4  1  0.27021673  0.27021673  0.18934982  1
  As  As5  1  0.27021673  0.27021673  0.77021673  1
  As  As6  1  0.27021673  0.68934982  0.77021673  1
  As  As7  1  0.68934982  0.27021673  0.77021673  1
  P  P0  1  0.00000000  0.50000000  0.00000000  1
  P  P1  1  0.50000000  0.00000000  0.00000000  1
  P  P2  1  0.50000000  0.50000000  0.00000000  1
  P  P3  1  0.50000000  0.50000000  0.50000000  1
  P  P4  1  0.81788996  0.81788996  0.93211004  1
  P  P5  1  0.81788996  0.43211004  0.93211004  1
  P  P6  1  0.43211004  0.81788996  0.93211004  1
  P  P7  1  0.81788996  0.43211004  0.31788996  1
  P  P8  1  0.43211004  0.81788996  0.31788996  1
  P  P9  1  0.43211004  0.43211004  0.31788996  1
  P  P10  1  0.18211004  0.18211004  0.06788996  1
  P  P11  1  0.18211004  0.56788996  0.06788996  1
  P  P12  1  0.56788996  0.18211004  0.06788996  1
  P  P13  1  0.18211004  0.56788996  0.68211004  1
  P  P14  1  0.56788996  0.18211004  0.68211004  1
  P  P15  1  0.56788996  0.56788996  0.68211004  1
