# generated using pymatgen
data_710_K2Ge2
_symmetry_space_group_name_H-M   'Cmcm'
_cell_length_a   4.06085148
_cell_length_b   5.36664824
_cell_length_c   6.79455494
_cell_angle_alpha   66.74335812
_cell_angle_beta   90.00000000
_cell_angle_gamma   90.00000000
_chemical_formula_structural   K2Ge2
_chemical_formula_sum   'Ge2 K2'
_cell_volume   136.04307795
loop_
 _symmetry_equiv_pos_site_id
 _symmetry_equiv_pos_as_xyz
  1  'x, y, z'
loop_
 _atom_type_symbol
  Ge
  K
loop_
 _atom_site_type_symbol
 _atom_site_label
 _atom_site_symmetry_multiplicity
 _atom_site_fract_x
 _atom_site_fract_y
 _atom_site_fract_z
 _atom_site_occupancy
  Ge  Ge0  1  0.00000000  0.81903217  0.99214893  1
  Ge  Ge1  1  0.50000000  0.93096783  0.75785107  1
  K  K0  1  0.00000000  0.51862631  0.57988561  1
  K  K1  1  0.50000000  0.23137369  0.17011439  1
