# generated using pymatgen
data_718_AgGe5
_symmetry_space_group_name_H-M   'Cmmm'
_cell_length_a   6.66505730
_cell_length_b   6.66505730
_cell_length_c   4.24053765
_cell_angle_alpha   90.00000000
_cell_angle_beta   90.00000000
_cell_angle_gamma   142.34623621
_chemical_formula_structural   AgGe5
_chemical_formula_sum   'Ag1 Ge5'
_cell_volume   115.07753139
loop_
 _symmetry_equiv_pos_site_id
 _symmetry_equiv_pos_as_xyz
  1  'x, y, z'
loop_
 _atom_type_symbol
  Ag
  Ge
loop_
 _atom_site_type_symbol
 _atom_site_label
 _atom_site_symmetry_multiplicity
 _atom_site_fract_x
 _atom_site_fract_y
 _atom_site_fract_z
 _atom_site_occupancy
  Ag  Ag0  1  0.97243326  0.02756674  0.00000000  1
  Ge  Ge0  1  0.80517062  0.19482938  0.50000000  1
  Ge  Ge1  1  0.63574633  0.36425367  0.00000000  1
  Ge  Ge2  1  0.47200617  0.52799383  0.50000000  1
  Ge  Ge3  1  0.30917365  0.69082635  0.00000000  1
  Ge  Ge4  1  0.13880330  0.86119670  0.50000000  1
