# generated using pymatgen
data_719_BaV3
_symmetry_space_group_name_H-M   'P4/mmm'
_cell_length_a   3.16479715
_cell_length_b   3.15009082
_cell_length_c   8.06100575
_cell_angle_alpha   90.00000000
_cell_angle_beta   90.00000000
_cell_angle_gamma   90.00000000
_chemical_formula_structural   BaV3
_chemical_formula_sum   'Ba1 V3'
_cell_volume   80.36337822
loop_
 _symmetry_equiv_pos_site_id
 _symmetry_equiv_pos_as_xyz
  1  'x, y, z'
loop_
 _atom_type_symbol
  Ba
  V
loop_
 _atom_site_type_symbol
 _atom_site_label
 _atom_site_symmetry_multiplicity
 _atom_site_fract_x
 _atom_site_fract_y
 _atom_site_fract_z
 _atom_site_occupancy
  Ba  Ba0  1  0.00000000  0.00000000  0.00000000  1
  V  V0  1  0.50000000  0.50000000  0.65606154  1
  V  V1  1  0.00000000  0.00000000  0.50000000  1
  V  V2  1  0.50000000  0.50000000  0.34393846  1
