# generated using pymatgen
data_723_Mo2Sr4
_symmetry_space_group_name_H-M   'I4/mcm'
_cell_length_a   6.82930256
_cell_length_b   6.82930256
_cell_length_c   6.82930256
_cell_angle_alpha   97.76772597
_cell_angle_beta   97.76772597
_cell_angle_gamma   136.85999726
_chemical_formula_structural   Mo2Sr4
_chemical_formula_sum   'Mo2 Sr4'
_cell_volume   202.54248207
loop_
 _symmetry_equiv_pos_site_id
 _symmetry_equiv_pos_as_xyz
  1  'x, y, z'
loop_
 _atom_type_symbol
  Mo
  Sr
loop_
 _atom_site_type_symbol
 _atom_site_label
 _atom_site_symmetry_multiplicity
 _atom_site_fract_x
 _atom_site_fract_y
 _atom_site_fract_z
 _atom_site_occupancy
  Mo  Mo0  1  0.75000000  0.75000000  0.00000000  1
  Mo  Mo1  1  0.25000000  0.25000000  0.00000000  1
  Sr  Sr0  1  0.33953962  0.16046038  0.50000000  1
  Sr  Sr1  1  0.66046038  0.83953962  0.50000000  1
  Sr  Sr2  1  0.16046038  0.66046038  0.82092076  1
  Sr  Sr3  1  0.83953962  0.33953962  0.17907924  1
