# generated using pymatgen
data_724_Mo2W6
_symmetry_space_group_name_H-M   'I4/mmm'
_cell_length_a   3.79317239
_cell_length_b   3.79317239
_cell_length_c   9.52170032
_cell_angle_alpha   101.48934286
_cell_angle_beta   101.48934286
_cell_angle_gamma   90.00000000
_chemical_formula_structural   Mo2W6
_chemical_formula_sum   'Mo2 W6'
_cell_volume   131.45193484
loop_
 _symmetry_equiv_pos_site_id
 _symmetry_equiv_pos_as_xyz
  1  'x, y, z'
loop_
 _atom_type_symbol
  Mo
  W
loop_
 _atom_site_type_symbol
 _atom_site_label
 _atom_site_symmetry_multiplicity
 _atom_site_fract_x
 _atom_site_fract_y
 _atom_site_fract_z
 _atom_site_occupancy
  Mo  Mo0  1  0.37482312  0.37482312  0.74964624  1
  Mo  Mo1  1  0.62517688  0.62517688  0.25035376  1
  W  W0  1  0.00000000  0.50000000  0.00000000  1
  W  W1  1  0.50000000  0.00000000  0.00000000  1
  W  W2  1  0.25000000  0.75000000  0.50000000  1
  W  W3  1  0.75000000  0.25000000  0.50000000  1
  W  W4  1  0.12487838  0.12487838  0.24975676  1
  W  W5  1  0.87512162  0.87512162  0.75024324  1
