# generated using pymatgen
data_727_Ga2W
_symmetry_space_group_name_H-M   'I4/mmm'
_cell_length_a   4.95044276
_cell_length_b   4.95044276
_cell_length_c   4.95044276
_cell_angle_alpha   141.33866834
_cell_angle_beta   141.33866834
_cell_angle_gamma   55.82624957
_chemical_formula_structural   Ga2W
_chemical_formula_sum   'Ga2 W1'
_cell_volume   46.98764312
loop_
 _symmetry_equiv_pos_site_id
 _symmetry_equiv_pos_as_xyz
  1  'x, y, z'
loop_
 _atom_type_symbol
  Ga
  W
loop_
 _atom_site_type_symbol
 _atom_site_label
 _atom_site_symmetry_multiplicity
 _atom_site_fract_x
 _atom_site_fract_y
 _atom_site_fract_z
 _atom_site_occupancy
  Ga  Ga0  1  0.99632004  0.99632004  0.00000000  1
  Ga  Ga1  1  0.67034663  0.67034663  0.00000000  1
  W  W0  1  0.33333333  0.33333333  0.00000000  1
