# generated using pymatgen
data_728_FeBr3
_symmetry_space_group_name_H-M   'Fm -3 m'
_cell_length_a   5.10004859
_cell_length_b   5.10004859
_cell_length_c   5.10004859
_cell_angle_alpha   60.00000000
_cell_angle_beta   60.00000000
_cell_angle_gamma   60.00000000
_chemical_formula_structural   FeBr3
_chemical_formula_sum   'Br3 Fe1'
_cell_volume   93.80110245
loop_
 _symmetry_equiv_pos_site_id
 _symmetry_equiv_pos_as_xyz
  1  'x, y, z'
loop_
 _atom_type_symbol
  Br
  Fe
loop_
 _atom_site_type_symbol
 _atom_site_label
 _atom_site_symmetry_multiplicity
 _atom_site_fract_x
 _atom_site_fract_y
 _atom_site_fract_z
 _atom_site_occupancy
  Br  Br0  1  0.00000000  0.00000000  0.00000000  1
  Br  Br1  1  0.25000000  0.25000000  0.25000000  1
  Br  Br2  1  0.50000000  0.50000000  0.50000000  1
  Fe  Fe0  1  0.75000000  0.75000000  0.75000000  1
