# generated using pymatgen
data_72_Ni4Ge4
_symmetry_space_group_name_H-M   'Pnma'
_cell_length_a   3.45482896
_cell_length_b   5.42049635
_cell_length_c   5.86563211
_cell_angle_alpha   90.00000000
_cell_angle_beta   90.00000000
_cell_angle_gamma   90.00000000
_chemical_formula_structural   Ni4Ge4
_chemical_formula_sum   'Ge4 Ni4'
_cell_volume   109.84503421
loop_
 _symmetry_equiv_pos_site_id
 _symmetry_equiv_pos_as_xyz
  1  'x, y, z'
loop_
 _atom_type_symbol
  Ge
  Ni
loop_
 _atom_site_type_symbol
 _atom_site_label
 _atom_site_symmetry_multiplicity
 _atom_site_fract_x
 _atom_site_fract_y
 _atom_site_fract_z
 _atom_site_occupancy
  Ge  Ge0  1  0.25000000  0.19020698  0.41474868  1
  Ge  Ge1  1  0.75000000  0.30979302  0.91474868  1
  Ge  Ge2  1  0.75000000  0.80979302  0.58525132  1
  Ge  Ge3  1  0.25000000  0.69020698  0.08525132  1
  Ni  Ni0  1  0.25000000  0.00554986  0.80954165  1
  Ni  Ni1  1  0.75000000  0.49445014  0.30954165  1
  Ni  Ni2  1  0.75000000  0.99445014  0.19045835  1
  Ni  Ni3  1  0.25000000  0.50554986  0.69045835  1
