# generated using pymatgen
data_731_Cr6Pb18
_symmetry_space_group_name_H-M   'Pmmn'
_cell_length_a   6.07876620
_cell_length_b   6.37185325
_cell_length_c   15.86349172
_cell_angle_alpha   90.00000000
_cell_angle_beta   90.00000000
_cell_angle_gamma   90.00000000
_chemical_formula_structural   Cr6Pb18
_chemical_formula_sum   'Cr6 Pb18'
_cell_volume   614.44072263
loop_
 _symmetry_equiv_pos_site_id
 _symmetry_equiv_pos_as_xyz
  1  'x, y, z'
loop_
 _atom_type_symbol
  Cr
  Pb
loop_
 _atom_site_type_symbol
 _atom_site_label
 _atom_site_symmetry_multiplicity
 _atom_site_fract_x
 _atom_site_fract_y
 _atom_site_fract_z
 _atom_site_occupancy
  Cr  Cr0  1  0.87094464  0.25000000  0.75000000  1
  Cr  Cr1  1  0.69250270  0.25000000  0.41429657  1
  Cr  Cr2  1  0.69250270  0.25000000  0.08570343  1
  Cr  Cr3  1  0.12905536  0.75000000  0.25000000  1
  Cr  Cr4  1  0.30749730  0.75000000  0.91429657  1
  Cr  Cr5  1  0.30749730  0.75000000  0.58570343  1
  Pb  Pb0  1  0.15382555  0.99706358  0.41557142  1
  Pb  Pb1  1  0.15382555  0.99706358  0.08442858  1
  Pb  Pb2  1  0.50344274  0.99137164  0.75000000  1
  Pb  Pb3  1  0.49655726  0.00862836  0.25000000  1
  Pb  Pb4  1  0.84617445  0.00293642  0.91557142  1
  Pb  Pb5  1  0.84617445  0.00293642  0.58442858  1
  Pb  Pb6  1  0.95259137  0.25000000  0.25000000  1
  Pb  Pb7  1  0.35203706  0.25000000  0.92051849  1
  Pb  Pb8  1  0.35203706  0.25000000  0.57948151  1
  Pb  Pb9  1  0.15382555  0.50293642  0.41557142  1
  Pb  Pb10  1  0.15382555  0.50293642  0.08442858  1
  Pb  Pb11  1  0.50344274  0.50862836  0.75000000  1
  Pb  Pb12  1  0.49655726  0.49137164  0.25000000  1
  Pb  Pb13  1  0.84617445  0.49706358  0.91557142  1
  Pb  Pb14  1  0.84617445  0.49706358  0.58442858  1
  Pb  Pb15  1  0.04740863  0.75000000  0.75000000  1
  Pb  Pb16  1  0.64796294  0.75000000  0.42051849  1
  Pb  Pb17  1  0.64796294  0.75000000  0.07948151  1
