# generated using pymatgen
data_732_AgSn2
_symmetry_space_group_name_H-M   'I4/mmm'
_cell_length_a   6.97394191
_cell_length_b   6.97394191
_cell_length_c   6.68100723
_cell_angle_alpha   76.00269855
_cell_angle_beta   76.00269855
_cell_angle_gamma   27.35343639
_chemical_formula_structural   AgSn2
_chemical_formula_sum   'Ag2 Sn4'
_cell_volume   144.60128177
loop_
 _symmetry_equiv_pos_site_id
 _symmetry_equiv_pos_as_xyz
  1  'x, y, z'
loop_
 _atom_type_symbol
  Ag
  Sn
loop_
 _atom_site_type_symbol
 _atom_site_label
 _atom_site_symmetry_multiplicity
 _atom_site_fract_x
 _atom_site_fract_y
 _atom_site_fract_z
 _atom_site_occupancy
  Ag  Ag0  1  0.63874153  0.63874153  0.72353411  1
  Ag  Ag1  1  0.63903625  0.63903625  0.22091033  1
  Sn  Sn0  1  0.98701314  0.98701314  0.04946891  1
  Sn  Sn1  1  0.28981477  0.28981477  0.39597414  1
  Sn  Sn2  1  0.98796300  0.98796300  0.54847030  1
  Sn  Sn3  1  0.29076463  0.29076463  0.89497553  1
