# generated using pymatgen
data_733_Pt2Sb
_symmetry_space_group_name_H-M   'I4/mmm'
_cell_length_a   4.81493491
_cell_length_b   4.81493491
_cell_length_c   5.17305897
_cell_angle_alpha   90.00000000
_cell_angle_beta   90.00000000
_cell_angle_gamma   115.06094346
_chemical_formula_structural   Pt2Sb
_chemical_formula_sum   'Pt4 Sb2'
_cell_volume   108.63962905
loop_
 _symmetry_equiv_pos_site_id
 _symmetry_equiv_pos_as_xyz
  1  'x, y, z'
loop_
 _atom_type_symbol
  Pt
  Sb
loop_
 _atom_site_type_symbol
 _atom_site_label
 _atom_site_symmetry_multiplicity
 _atom_site_fract_x
 _atom_site_fract_y
 _atom_site_fract_z
 _atom_site_occupancy
  Pt  Pt0  1  0.57667589  0.92057142  0.25000000  1
  Pt  Pt1  1  0.42332411  0.07942858  0.75000000  1
  Pt  Pt2  1  0.92057142  0.57667589  0.25000000  1
  Pt  Pt3  1  0.07942858  0.42332411  0.75000000  1
  Sb  Sb0  1  0.24674050  0.24674050  0.25000000  1
  Sb  Sb1  1  0.75325950  0.75325950  0.75000000  1
