# generated using pymatgen
data_740_Ag5Al7
_symmetry_space_group_name_H-M   'P-1'
_cell_length_a   6.50606089
_cell_length_b   6.56491709
_cell_length_c   5.61575609
_cell_angle_alpha   114.91250922
_cell_angle_beta   105.51938408
_cell_angle_gamma   71.67816709
_chemical_formula_structural   Ag5Al7
_chemical_formula_sum   'Ag5 Al7'
_cell_volume   203.95228721
loop_
 _symmetry_equiv_pos_site_id
 _symmetry_equiv_pos_as_xyz
  1  'x, y, z'
loop_
 _atom_type_symbol
  Ag
  Al
loop_
 _atom_site_type_symbol
 _atom_site_label
 _atom_site_symmetry_multiplicity
 _atom_site_fract_x
 _atom_site_fract_y
 _atom_site_fract_z
 _atom_site_occupancy
  Ag  Ag0  1  0.00427900  0.99090557  0.99047714  1
  Ag  Ag1  1  0.33333333  0.16666667  0.41666667  1
  Ag  Ag2  1  0.66238766  0.34242777  0.84285619  1
  Ag  Ag3  1  0.66412620  0.83697625  0.09259074  1
  Ag  Ag4  1  0.00254047  0.49635708  0.74074259  1
  Al  Al0  1  0.00024638  0.49760870  0.24226861  1
  Al  Al1  1  0.33288224  0.66519110  0.66125727  1
  Al  Al2  1  0.00311543  0.99937716  0.49706357  1
  Al  Al3  1  0.33333333  0.16666667  0.91666667  1
  Al  Al4  1  0.66355123  0.33395617  0.33626977  1
  Al  Al5  1  0.33378443  0.66814223  0.17207607  1
  Al  Al6  1  0.66642028  0.83572463  0.59106472  1
