# generated using pymatgen
data_745_CaCr3
_symmetry_space_group_name_H-M   'Pmm2'
_cell_length_a   2.98767704
_cell_length_b   4.25322739
_cell_length_c   5.72699988
_cell_angle_alpha   90.00000000
_cell_angle_beta   90.00000000
_cell_angle_gamma   90.00000000
_chemical_formula_structural   CaCr3
_chemical_formula_sum   'Ca1 Cr3'
_cell_volume   72.77453273
loop_
 _symmetry_equiv_pos_site_id
 _symmetry_equiv_pos_as_xyz
  1  'x, y, z'
loop_
 _atom_type_symbol
  Ca
  Cr
loop_
 _atom_site_type_symbol
 _atom_site_label
 _atom_site_symmetry_multiplicity
 _atom_site_fract_x
 _atom_site_fract_y
 _atom_site_fract_z
 _atom_site_occupancy
  Ca  Ca0  1  0.00000000  0.00000000  0.02089149  1
  Cr  Cr0  1  0.50000000  0.00000000  0.51625433  1
  Cr  Cr1  1  0.50000000  0.50000000  0.70244330  1
  Cr  Cr2  1  0.00000000  0.50000000  0.42707756  1
