# generated using pymatgen
data_74_SmSb
_symmetry_space_group_name_H-M   'P-6m2'
_cell_length_a   4.23074017
_cell_length_b   4.23194434
_cell_length_c   4.03984232
_cell_angle_alpha   90.00000000
_cell_angle_beta   90.00000000
_cell_angle_gamma   119.99057577
_chemical_formula_structural   SmSb
_chemical_formula_sum   'Sb1 Sm1'
_cell_volume   62.64588979
loop_
 _symmetry_equiv_pos_site_id
 _symmetry_equiv_pos_as_xyz
  1  'x, y, z'
loop_
 _atom_type_symbol
  Sb
  Sm
loop_
 _atom_site_type_symbol
 _atom_site_label
 _atom_site_symmetry_multiplicity
 _atom_site_fract_x
 _atom_site_fract_y
 _atom_site_fract_z
 _atom_site_occupancy
  Sb  Sb0  1  0.66666630  0.33333161  0.75000000  1
  Sm  Sm0  1  0.33333370  0.66666839  0.25000000  1
