# generated using pymatgen
data_750_Cr2As4
_symmetry_space_group_name_H-M   'I4_1/amd'
_cell_length_a   11.29668086
_cell_length_b   11.29668086
_cell_length_c   11.29668086
_cell_angle_alpha   164.08477970
_cell_angle_beta   164.00918517
_cell_angle_gamma   22.63513710
_chemical_formula_structural   Cr2As4
_chemical_formula_sum   'As4 Cr2'
_cell_volume   108.88166886
loop_
 _symmetry_equiv_pos_site_id
 _symmetry_equiv_pos_as_xyz
  1  'x, y, z'
loop_
 _atom_type_symbol
  As
  Cr
loop_
 _atom_site_type_symbol
 _atom_site_label
 _atom_site_symmetry_multiplicity
 _atom_site_fract_x
 _atom_site_fract_y
 _atom_site_fract_z
 _atom_site_occupancy
  As  As0  1  0.68799027  0.93799027  0.75000000  1
  As  As1  1  0.31200973  0.06200973  0.25000000  1
  As  As2  1  0.56222633  0.81222633  0.75000000  1
  As  As3  1  0.43777367  0.18777367  0.25000000  1
  Cr  Cr0  1  0.12504513  0.37504513  0.75000000  1
  Cr  Cr1  1  0.87495487  0.62495487  0.25000000  1
