# generated using pymatgen
data_753_Ir2V4
_symmetry_space_group_name_H-M   'I4/mcm'
_cell_length_a   5.16899657
_cell_length_b   4.89214762
_cell_length_c   4.89214762
_cell_angle_alpha   106.20625014
_cell_angle_beta   121.89034313
_cell_angle_gamma   58.10965687
_chemical_formula_structural   Ir2V4
_chemical_formula_sum   'Ir2 V4'
_cell_volume   89.18316294
loop_
 _symmetry_equiv_pos_site_id
 _symmetry_equiv_pos_as_xyz
  1  'x, y, z'
loop_
 _atom_type_symbol
  Ir
  V
loop_
 _atom_site_type_symbol
 _atom_site_label
 _atom_site_symmetry_multiplicity
 _atom_site_fract_x
 _atom_site_fract_y
 _atom_site_fract_z
 _atom_site_occupancy
  Ir  Ir0  1  0.25000000  0.00000000  0.00000000  1
  Ir  Ir1  1  0.75000000  0.00000000  0.00000000  1
  V  V0  1  0.14905807  0.20188386  0.50000000  1
  V  V1  1  0.35094193  0.50000000  0.20188386  1
  V  V2  1  0.64905807  0.50000000  0.79811614  1
  V  V3  1  0.85094193  0.79811614  0.50000000  1
