# generated using pymatgen
data_755_RhV
_symmetry_space_group_name_H-M   'F-43m'
_cell_length_a   3.79640115
_cell_length_b   3.79640115
_cell_length_c   3.79640115
_cell_angle_alpha   60.00000000
_cell_angle_beta   60.00000000
_cell_angle_gamma   60.00000000
_chemical_formula_structural   RhV
_chemical_formula_sum   'Rh1 V1'
_cell_volume   38.69022830
loop_
 _symmetry_equiv_pos_site_id
 _symmetry_equiv_pos_as_xyz
  1  'x, y, z'
loop_
 _atom_type_symbol
  Rh
  V
loop_
 _atom_site_type_symbol
 _atom_site_label
 _atom_site_symmetry_multiplicity
 _atom_site_fract_x
 _atom_site_fract_y
 _atom_site_fract_z
 _atom_site_occupancy
  Rh  Rh0  1  0.00000000  0.00000000  0.00000000  1
  V  V0  1  0.24999805  0.24999805  0.24999805  1
