# generated using pymatgen
data_756_Fe2Ir2
_symmetry_space_group_name_H-M   'P4/nmm'
_cell_length_a   2.63930166
_cell_length_b   2.63930166
_cell_length_c   7.18262178
_cell_angle_alpha   90.00000000
_cell_angle_beta   90.00000000
_cell_angle_gamma   90.00000000
_chemical_formula_structural   Fe2Ir2
_chemical_formula_sum   'Fe2 Ir2'
_cell_volume   50.03352024
loop_
 _symmetry_equiv_pos_site_id
 _symmetry_equiv_pos_as_xyz
  1  'x, y, z'
loop_
 _atom_type_symbol
  Fe
  Ir
loop_
 _atom_site_type_symbol
 _atom_site_label
 _atom_site_symmetry_multiplicity
 _atom_site_fract_x
 _atom_site_fract_y
 _atom_site_fract_z
 _atom_site_occupancy
  Fe  Fe0  1  0.25000000  0.25000000  0.11225404  1
  Fe  Fe1  1  0.75000000  0.75000000  0.88774596  1
  Ir  Ir0  1  0.25000000  0.25000000  0.64018091  1
  Ir  Ir1  1  0.75000000  0.75000000  0.35981909  1
