# generated using pymatgen
data_757_W5P
_symmetry_space_group_name_H-M   'F-43m'
_cell_length_a   5.24711449
_cell_length_b   5.24711449
_cell_length_c   5.24711449
_cell_angle_alpha   60.00000000
_cell_angle_beta   60.00000000
_cell_angle_gamma   60.00000000
_chemical_formula_structural   W5P
_chemical_formula_sum   'P1 W5'
_cell_volume   102.15194129
loop_
 _symmetry_equiv_pos_site_id
 _symmetry_equiv_pos_as_xyz
  1  'x, y, z'
loop_
 _atom_type_symbol
  P
  W
loop_
 _atom_site_type_symbol
 _atom_site_label
 _atom_site_symmetry_multiplicity
 _atom_site_fract_x
 _atom_site_fract_y
 _atom_site_fract_z
 _atom_site_occupancy
  P  P0  1  0.00000000  0.00000000  0.00000000  1
  W  W0  1  0.25000000  0.25000000  0.25000000  1
  W  W1  1  0.12514121  0.62495293  0.62495293  1
  W  W2  1  0.62495293  0.12514121  0.62495293  1
  W  W3  1  0.62495293  0.62495293  0.62495293  1
  W  W4  1  0.62495293  0.62495293  0.12514121  1
