# generated using pymatgen
data_759_P4Br16
_symmetry_space_group_name_H-M   'I-43m'
_cell_length_a   9.49297415
_cell_length_b   9.49297415
_cell_length_c   9.49297415
_cell_angle_alpha   109.47122063
_cell_angle_beta   109.47122063
_cell_angle_gamma   109.47122063
_chemical_formula_structural   P4Br16
_chemical_formula_sum   'Br16 P4'
_cell_volume   658.54431324
loop_
 _symmetry_equiv_pos_site_id
 _symmetry_equiv_pos_as_xyz
  1  'x, y, z'
loop_
 _atom_type_symbol
  Br
  P
loop_
 _atom_site_type_symbol
 _atom_site_label
 _atom_site_symmetry_multiplicity
 _atom_site_fract_x
 _atom_site_fract_y
 _atom_site_fract_z
 _atom_site_occupancy
  Br  Br0  1  0.44150258  0.44150258  0.44150258  1
  Br  Br1  1  0.55849742  0.00000000  0.00000000  1
  Br  Br2  1  1.00000000  0.55849742  0.00000000  1
  Br  Br3  1  1.00000000  0.00000000  0.55849742  1
  Br  Br4  1  0.71557564  0.71557564  0.00000000  1
  Br  Br5  1  0.28442436  0.28442436  0.00000000  1
  Br  Br6  1  0.71557564  0.00000000  0.71557564  1
  Br  Br7  1  0.28442436  0.00000000  0.28442436  1
  Br  Br8  1  1.00000000  0.71557564  0.71557564  1
  Br  Br9  1  1.00000000  0.28442436  0.28442436  1
  Br  Br10  1  0.25039414  0.75039414  0.50000000  1
  Br  Br11  1  0.74960586  0.24960586  0.50000000  1
  Br  Br12  1  0.75039414  0.50000000  0.25039414  1
  Br  Br13  1  0.24960586  0.50000000  0.74960586  1
  Br  Br14  1  0.50000000  0.25039414  0.75039414  1
  Br  Br15  1  0.50000000  0.74960586  0.24960586  1
  P  P0  1  0.21390732  0.21390732  0.21390732  1
  P  P1  1  0.78609268  0.00000000  0.00000000  1
  P  P2  1  0.00000000  0.78609268  0.00000000  1
  P  P3  1  0.00000000  0.00000000  0.78609268  1
