# generated using pymatgen
data_75_Fe8Pt
_symmetry_space_group_name_H-M   'I4/mmm'
_cell_length_a   2.90751171
_cell_length_b   6.34260967
_cell_length_c   6.34260967
_cell_angle_alpha   93.01140789
_cell_angle_beta   103.25025276
_cell_angle_gamma   76.74974724
_chemical_formula_structural   Fe8Pt
_chemical_formula_sum   'Fe8 Pt1'
_cell_volume   110.82065578
loop_
 _symmetry_equiv_pos_site_id
 _symmetry_equiv_pos_as_xyz
  1  'x, y, z'
loop_
 _atom_type_symbol
  Fe
  Pt
loop_
 _atom_site_type_symbol
 _atom_site_label
 _atom_site_symmetry_multiplicity
 _atom_site_fract_x
 _atom_site_fract_y
 _atom_site_fract_z
 _atom_site_occupancy
  Fe  Fe0  1  1.00000000  0.33538291  0.33538291  1
  Fe  Fe1  1  0.00000000  0.66461709  0.66461709  1
  Fe  Fe2  1  0.33538291  0.66461709  0.33538291  1
  Fe  Fe3  1  0.32764359  0.00000000  0.65528719  1
  Fe  Fe4  1  0.32764359  0.34471281  0.00000000  1
  Fe  Fe5  1  0.66461709  0.33538291  0.66461709  1
  Fe  Fe6  1  0.67235641  0.65528719  0.00000000  1
  Fe  Fe7  1  0.67235641  0.00000000  0.34471281  1
  Pt  Pt0  1  0.00000000  0.00000000  0.00000000  1
