# generated using pymatgen
data_760_Cr26Nb2
_symmetry_space_group_name_H-M   'Fm -3 c'
_cell_length_a   7.96686887
_cell_length_b   7.96686887
_cell_length_c   7.96686887
_cell_angle_alpha   60.00000000
_cell_angle_beta   60.00000000
_cell_angle_gamma   60.00000000
_chemical_formula_structural   Cr26Nb2
_chemical_formula_sum   'Cr26 Nb2'
_cell_volume   357.55924246
loop_
 _symmetry_equiv_pos_site_id
 _symmetry_equiv_pos_as_xyz
  1  'x, y, z'
loop_
 _atom_type_symbol
  Cr
  Nb
loop_
 _atom_site_type_symbol
 _atom_site_label
 _atom_site_symmetry_multiplicity
 _atom_site_fract_x
 _atom_site_fract_y
 _atom_site_fract_z
 _atom_site_occupancy
  Cr  Cr0  1  0.30608818  0.69391182  0.06116270  1
  Cr  Cr1  1  0.06116270  0.93883730  0.30608818  1
  Cr  Cr2  1  0.93883730  0.06116270  0.69391182  1
  Cr  Cr3  1  0.69391182  0.30608818  0.93883730  1
  Cr  Cr4  1  0.93883730  0.69391182  0.30608818  1
  Cr  Cr5  1  0.69391182  0.93883730  0.06116270  1
  Cr  Cr6  1  0.30608818  0.06116270  0.93883730  1
  Cr  Cr7  1  0.06116270  0.30608818  0.69391182  1
  Cr  Cr8  1  0.06116270  0.69391182  0.93883730  1
  Cr  Cr9  1  0.30608818  0.93883730  0.69391182  1
  Cr  Cr10  1  0.69391182  0.06116270  0.30608818  1
  Cr  Cr11  1  0.93883730  0.30608818  0.06116270  1
  Cr  Cr12  1  0.19391182  0.56116270  0.43883730  1
  Cr  Cr13  1  0.43883730  0.80608818  0.19391182  1
  Cr  Cr14  1  0.56116270  0.19391182  0.80608818  1
  Cr  Cr15  1  0.80608818  0.43883730  0.56116270  1
  Cr  Cr16  1  0.56116270  0.43883730  0.19391182  1
  Cr  Cr17  1  0.80608818  0.19391182  0.43883730  1
  Cr  Cr18  1  0.19391182  0.80608818  0.56116270  1
  Cr  Cr19  1  0.43883730  0.56116270  0.80608818  1
  Cr  Cr20  1  0.43883730  0.19391182  0.56116270  1
  Cr  Cr21  1  0.19391182  0.43883730  0.80608818  1
  Cr  Cr22  1  0.80608818  0.56116270  0.19391182  1
  Cr  Cr23  1  0.56116270  0.80608818  0.43883730  1
  Cr  Cr24  1  0.00000000  0.00000000  0.00000000  1
  Cr  Cr25  1  0.50000000  0.50000000  0.50000000  1
  Nb  Nb0  1  0.25000000  0.25000000  0.25000000  1
  Nb  Nb1  1  0.75000000  0.75000000  0.75000000  1
