# generated using pymatgen
data_761_CuMo
_symmetry_space_group_name_H-M   'P-6m2'
_cell_length_a   2.67591600
_cell_length_b   2.67585344
_cell_length_c   4.52506400
_cell_angle_alpha   90.00000000
_cell_angle_beta   90.00000000
_cell_angle_gamma   120.00077335
_chemical_formula_structural   CuMo
_chemical_formula_sum   'Cu1 Mo1'
_cell_volume   28.05994226
loop_
 _symmetry_equiv_pos_site_id
 _symmetry_equiv_pos_as_xyz
  1  'x, y, z'
loop_
 _atom_type_symbol
  Cu
  Mo
loop_
 _atom_site_type_symbol
 _atom_site_label
 _atom_site_symmetry_multiplicity
 _atom_site_fract_x
 _atom_site_fract_y
 _atom_site_fract_z
 _atom_site_occupancy
  Cu  Cu0  1  0.66666827  0.33333491  0.75000049  1
  Mo  Mo0  1  0.33333288  0.66666551  0.25000090  1
