# generated using pymatgen
data_762_Na2Pt4
_symmetry_space_group_name_H-M   'I4/mcm'
_cell_length_a   5.25637526
_cell_length_b   5.25637526
_cell_length_c   5.25637526
_cell_angle_alpha   99.49023849
_cell_angle_beta   99.49023849
_cell_angle_gamma   132.08565728
_chemical_formula_structural   Na2Pt4
_chemical_formula_sum   'Na2 Pt4'
_cell_volume   98.49668518
loop_
 _symmetry_equiv_pos_site_id
 _symmetry_equiv_pos_as_xyz
  1  'x, y, z'
loop_
 _atom_type_symbol
  Na
  Pt
loop_
 _atom_site_type_symbol
 _atom_site_label
 _atom_site_symmetry_multiplicity
 _atom_site_fract_x
 _atom_site_fract_y
 _atom_site_fract_z
 _atom_site_occupancy
  Na  Na0  1  0.25000000  0.25000000  0.00000000  1
  Na  Na1  1  0.75000000  0.75000000  0.00000000  1
  Pt  Pt0  1  0.14132685  0.35867315  0.50000000  1
  Pt  Pt1  1  0.35867315  0.85867315  0.21734631  1
  Pt  Pt2  1  0.64132685  0.14132685  0.78265369  1
  Pt  Pt3  1  0.85867315  0.64132685  0.50000000  1
