# generated using pymatgen
data_763_PbAs3
_symmetry_space_group_name_H-M   'Immm'
_cell_length_a   5.78594259
_cell_length_b   5.78594259
_cell_length_c   5.78594259
_cell_angle_alpha   144.00268150
_cell_angle_beta   125.29358673
_cell_angle_gamma   67.24379878
_chemical_formula_structural   PbAs3
_chemical_formula_sum   'As3 Pb1'
_cell_volume   91.59853047
loop_
 _symmetry_equiv_pos_site_id
 _symmetry_equiv_pos_as_xyz
  1  'x, y, z'
loop_
 _atom_type_symbol
  As
  Pb
loop_
 _atom_site_type_symbol
 _atom_site_label
 _atom_site_symmetry_multiplicity
 _atom_site_fract_x
 _atom_site_fract_y
 _atom_site_fract_z
 _atom_site_occupancy
  As  As0  1  0.03984973  0.95741757  0.08243216  1
  As  As1  1  0.62501459  0.54258243  0.08243216  1
  As  As2  1  0.83426049  0.25000000  0.58426049  1
  Pb  Pb0  1  0.33420852  0.75000000  0.58420852  1
