# generated using pymatgen
data_766_Au3Ga
_symmetry_space_group_name_H-M   'P4/mmm'
_cell_length_a   3.04608861
_cell_length_b   3.04608861
_cell_length_c   7.67025263
_cell_angle_alpha   90.00000000
_cell_angle_beta   90.00000000
_cell_angle_gamma   90.00000000
_chemical_formula_structural   Au3Ga
_chemical_formula_sum   'Au3 Ga1'
_cell_volume   71.16963421
loop_
 _symmetry_equiv_pos_site_id
 _symmetry_equiv_pos_as_xyz
  1  'x, y, z'
loop_
 _atom_type_symbol
  Au
  Ga
loop_
 _atom_site_type_symbol
 _atom_site_label
 _atom_site_symmetry_multiplicity
 _atom_site_fract_x
 _atom_site_fract_y
 _atom_site_fract_z
 _atom_site_occupancy
  Au  Au0  1  0.50000000  0.50000000  0.76583737  1
  Au  Au1  1  0.00000000  0.00000000  0.50000000  1
  Au  Au2  1  0.50000000  0.50000000  0.23416263  1
  Ga  Ga0  1  0.00000000  0.00000000  0.00000000  1
