# generated using pymatgen
data_767_Al18Pt6
_symmetry_space_group_name_H-M   'Pmmn'
_cell_length_a   4.65533914
_cell_length_b   5.26294799
_cell_length_c   15.57407285
_cell_angle_alpha   90.00000000
_cell_angle_beta   90.00000000
_cell_angle_gamma   90.00000000
_chemical_formula_structural   Al18Pt6
_chemical_formula_sum   'Al18 Pt6'
_cell_volume   381.57736509
loop_
 _symmetry_equiv_pos_site_id
 _symmetry_equiv_pos_as_xyz
  1  'x, y, z'
loop_
 _atom_type_symbol
  Al
  Pt
loop_
 _atom_site_type_symbol
 _atom_site_label
 _atom_site_symmetry_multiplicity
 _atom_site_fract_x
 _atom_site_fract_y
 _atom_site_fract_z
 _atom_site_occupancy
  Al  Al0  1  0.24982162  0.00015006  0.44017381  1
  Al  Al1  1  0.24982162  0.00015006  0.05982619  1
  Al  Al2  1  0.46924392  0.99743512  0.75000000  1
  Al  Al3  1  0.53075608  0.00256488  0.25000000  1
  Al  Al4  1  0.75017838  0.99984994  0.94017381  1
  Al  Al5  1  0.75017838  0.99984994  0.55982619  1
  Al  Al6  1  0.03036256  0.25000000  0.25000000  1
  Al  Al7  1  0.23156586  0.25000000  0.89315146  1
  Al  Al8  1  0.23156586  0.25000000  0.60684854  1
  Al  Al9  1  0.24982162  0.49984994  0.44017381  1
  Al  Al10  1  0.24982162  0.49984994  0.05982619  1
  Al  Al11  1  0.46924392  0.50256488  0.75000000  1
  Al  Al12  1  0.53075608  0.49743512  0.25000000  1
  Al  Al13  1  0.75017838  0.50015006  0.94017381  1
  Al  Al14  1  0.75017838  0.50015006  0.55982619  1
  Al  Al15  1  0.96963744  0.75000000  0.75000000  1
  Al  Al16  1  0.76843414  0.75000000  0.39315146  1
  Al  Al17  1  0.76843414  0.75000000  0.10684854  1
  Pt  Pt0  1  0.95312744  0.25000000  0.75000000  1
  Pt  Pt1  1  0.73052031  0.25000000  0.40085793  1
  Pt  Pt2  1  0.73052031  0.25000000  0.09914207  1
  Pt  Pt3  1  0.04687256  0.75000000  0.25000000  1
  Pt  Pt4  1  0.26947969  0.75000000  0.90085793  1
  Pt  Pt5  1  0.26947969  0.75000000  0.59914207  1
