# generated using pymatgen
data_769_P16Br4
_symmetry_space_group_name_H-M   'I23'
_cell_length_a   7.93190014
_cell_length_b   7.93190014
_cell_length_c   7.93190014
_cell_angle_alpha   109.47122063
_cell_angle_beta   109.47122063
_cell_angle_gamma   109.47122063
_chemical_formula_structural   P16Br4
_chemical_formula_sum   'Br4 P16'
_cell_volume   384.15794789
loop_
 _symmetry_equiv_pos_site_id
 _symmetry_equiv_pos_as_xyz
  1  'x, y, z'
loop_
 _atom_type_symbol
  Br
  P
loop_
 _atom_site_type_symbol
 _atom_site_label
 _atom_site_symmetry_multiplicity
 _atom_site_fract_x
 _atom_site_fract_y
 _atom_site_fract_z
 _atom_site_occupancy
  Br  Br0  1  0.45240726  0.45240726  0.45240726  1
  Br  Br1  1  0.54759274  0.00000000  0.00000000  1
  Br  Br2  1  0.00000000  0.54759274  0.00000000  1
  Br  Br3  1  0.00000000  0.00000000  0.54759274  1
  P  P0  1  0.78466878  0.78466878  0.78466878  1
  P  P1  1  0.21533122  0.00000000  0.00000000  1
  P  P2  1  1.00000000  0.21533122  0.00000000  1
  P  P3  1  1.00000000  0.00000000  0.21533122  1
  P  P4  1  0.62932260  0.62932260  0.00000000  1
  P  P5  1  0.37067740  0.37067740  0.00000000  1
  P  P6  1  0.62932260  0.00000000  0.62932260  1
  P  P7  1  0.37067740  0.00000000  0.37067740  1
  P  P8  1  1.00000000  0.62932260  0.62932260  1
  P  P9  1  0.00000000  0.37067740  0.37067740  1
  P  P10  1  0.21043445  0.71043445  0.50000000  1
  P  P11  1  0.78956555  0.28956555  0.50000000  1
  P  P12  1  0.71043445  0.50000000  0.21043445  1
  P  P13  1  0.28956555  0.50000000  0.78956555  1
  P  P14  1  0.50000000  0.21043445  0.71043445  1
  P  P15  1  0.50000000  0.78956555  0.28956555  1
