# generated using pymatgen
data_76_RhV
_symmetry_space_group_name_H-M   'P-6m2'
_cell_length_a   2.70416319
_cell_length_b   2.70415658
_cell_length_c   4.29188133
_cell_angle_alpha   90.00000000
_cell_angle_beta   90.00000000
_cell_angle_gamma   120.00009326
_chemical_formula_structural   RhV
_chemical_formula_sum   'Rh1 V1'
_cell_volume   27.17957491
loop_
 _symmetry_equiv_pos_site_id
 _symmetry_equiv_pos_as_xyz
  1  'x, y, z'
loop_
 _atom_type_symbol
  Rh
  V
loop_
 _atom_site_type_symbol
 _atom_site_label
 _atom_site_symmetry_multiplicity
 _atom_site_fract_x
 _atom_site_fract_y
 _atom_site_fract_z
 _atom_site_occupancy
  Rh  Rh0  1  0.66666755  0.33333410  0.75000000  1
  V  V0  1  0.33333245  0.66666590  0.25000000  1
