# generated using pymatgen
data_770_Cr4Sr5
_symmetry_space_group_name_H-M   'I4/mmm'
_cell_length_a   7.88318122
_cell_length_b   7.88318122
_cell_length_c   7.88318122
_cell_angle_alpha   96.98194932
_cell_angle_beta   96.98194932
_cell_angle_gamma   139.19050109
_chemical_formula_structural   Cr4Sr5
_chemical_formula_sum   'Cr4 Sr5'
_cell_volume   300.08040491
loop_
 _symmetry_equiv_pos_site_id
 _symmetry_equiv_pos_as_xyz
  1  'x, y, z'
loop_
 _atom_type_symbol
  Cr
  Sr
loop_
 _atom_site_type_symbol
 _atom_site_label
 _atom_site_symmetry_multiplicity
 _atom_site_fract_x
 _atom_site_fract_y
 _atom_site_fract_z
 _atom_site_occupancy
  Cr  Cr0  1  0.64106478  0.00000000  0.64106478  1
  Cr  Cr1  1  0.35893522  0.00000000  0.35893522  1
  Cr  Cr2  1  1.00000000  0.35893522  0.35893522  1
  Cr  Cr3  1  1.00000000  0.64106478  0.64106478  1
  Sr  Sr0  1  0.00000000  0.00000000  0.00000000  1
  Sr  Sr1  1  0.67820225  0.32179775  0.00000000  1
  Sr  Sr2  1  0.32179775  0.67820225  0.00000000  1
  Sr  Sr3  1  0.32179775  0.32179775  0.64359549  1
  Sr  Sr4  1  0.67820225  0.67820225  0.35640451  1
