# generated using pymatgen
data_771_Al2Pt4
_symmetry_space_group_name_H-M   'Pnnm'
_cell_length_a   4.20528541
_cell_length_b   2.91112628
_cell_length_c   7.50984606
_cell_angle_alpha   90.00000000
_cell_angle_beta   90.00000000
_cell_angle_gamma   90.00000000
_chemical_formula_structural   Al2Pt4
_chemical_formula_sum   'Al2 Pt4'
_cell_volume   91.93641316
loop_
 _symmetry_equiv_pos_site_id
 _symmetry_equiv_pos_as_xyz
  1  'x, y, z'
loop_
 _atom_type_symbol
  Al
  Pt
loop_
 _atom_site_type_symbol
 _atom_site_label
 _atom_site_symmetry_multiplicity
 _atom_site_fract_x
 _atom_site_fract_y
 _atom_site_fract_z
 _atom_site_occupancy
  Al  Al0  1  0.00000000  0.00000000  0.00000000  1
  Al  Al1  1  0.50000000  0.50000000  0.50000000  1
  Pt  Pt0  1  0.00000000  0.22738457  0.66360486  1
  Pt  Pt1  1  0.00000000  0.77261543  0.33639514  1
  Pt  Pt2  1  0.50000000  0.72738457  0.83639514  1
  Pt  Pt3  1  0.50000000  0.27261543  0.16360486  1
