# generated using pymatgen
data_777_Al2Cu6
_symmetry_space_group_name_H-M   'Cmcm'
_cell_length_a   5.15810743
_cell_length_b   5.15810743
_cell_length_c   4.27259703
_cell_angle_alpha   90.00000000
_cell_angle_beta   90.00000000
_cell_angle_gamma   118.52617061
_chemical_formula_structural   Al2Cu6
_chemical_formula_sum   'Al2 Cu6'
_cell_volume   99.87652885
loop_
 _symmetry_equiv_pos_site_id
 _symmetry_equiv_pos_as_xyz
  1  'x, y, z'
loop_
 _atom_type_symbol
  Al
  Cu
loop_
 _atom_site_type_symbol
 _atom_site_label
 _atom_site_symmetry_multiplicity
 _atom_site_fract_x
 _atom_site_fract_y
 _atom_site_fract_z
 _atom_site_occupancy
  Al  Al0  1  0.59896219  0.40103781  0.25000000  1
  Al  Al1  1  0.40103781  0.59896219  0.75000000  1
  Cu  Cu0  1  0.90878986  0.09121014  0.75000000  1
  Cu  Cu1  1  0.09121014  0.90878986  0.25000000  1
  Cu  Cu2  1  0.90588067  0.59175148  0.75000000  1
  Cu  Cu3  1  0.09411933  0.40824852  0.25000000  1
  Cu  Cu4  1  0.40824852  0.09411933  0.75000000  1
  Cu  Cu5  1  0.59175148  0.90588067  0.25000000  1
