# generated using pymatgen
data_781_Ir2V
_symmetry_space_group_name_H-M   'I4/mmm'
_cell_length_a   2.74489421
_cell_length_b   5.60052730
_cell_length_c   2.74489421
_cell_angle_alpha   75.81481152
_cell_angle_beta   90.00000000
_cell_angle_gamma   104.18518848
_chemical_formula_structural   Ir2V
_chemical_formula_sum   'Ir2 V1'
_cell_volume   39.58178796
loop_
 _symmetry_equiv_pos_site_id
 _symmetry_equiv_pos_as_xyz
  1  'x, y, z'
loop_
 _atom_type_symbol
  Ir
  V
loop_
 _atom_site_type_symbol
 _atom_site_label
 _atom_site_symmetry_multiplicity
 _atom_site_fract_x
 _atom_site_fract_y
 _atom_site_fract_z
 _atom_site_occupancy
  Ir  Ir0  1  0.01596195  0.03192389  0.98403805  1
  Ir  Ir1  1  0.31737139  0.63474277  0.68262861  1
  V  V0  1  0.66666667  0.33333333  0.33333333  1
