# generated using pymatgen
data_785_Mn4W16
_symmetry_space_group_name_H-M   'I-43m'
_cell_length_a   7.58532871
_cell_length_b   7.58532871
_cell_length_c   7.58532871
_cell_angle_alpha   109.47122063
_cell_angle_beta   109.47122063
_cell_angle_gamma   109.47122063
_chemical_formula_structural   Mn4W16
_chemical_formula_sum   'Mn4 W16'
_cell_volume   335.97063908
loop_
 _symmetry_equiv_pos_site_id
 _symmetry_equiv_pos_as_xyz
  1  'x, y, z'
loop_
 _atom_type_symbol
  Mn
  W
loop_
 _atom_site_type_symbol
 _atom_site_label
 _atom_site_symmetry_multiplicity
 _atom_site_fract_x
 _atom_site_fract_y
 _atom_site_fract_z
 _atom_site_occupancy
  Mn  Mn0  1  0.68867808  0.00000000  0.00000000  1
  Mn  Mn1  1  0.31132192  0.31132192  0.31132192  1
  Mn  Mn2  1  1.00000000  1.00000000  0.68867808  1
  Mn  Mn3  1  0.00000000  0.68867808  0.00000000  1
  W  W0  1  0.37678506  0.00000000  0.00000000  1
  W  W1  1  0.62321494  0.62321494  0.62321494  1
  W  W2  1  0.00000000  0.00000000  0.37678506  1
  W  W3  1  1.00000000  0.37678506  0.00000000  1
  W  W4  1  0.32303657  0.32303657  0.00000000  1
  W  W5  1  0.67696343  0.67696343  0.00000000  1
  W  W6  1  0.32303657  0.00000000  0.32303657  1
  W  W7  1  0.67696343  1.00000000  0.67696343  1
  W  W8  1  1.00000000  0.67696343  0.67696343  1
  W  W9  1  1.00000000  0.32303657  0.32303657  1
  W  W10  1  0.74984682  0.24984682  0.50000000  1
  W  W11  1  0.25015318  0.75015318  0.50000000  1
  W  W12  1  0.24984682  0.50000000  0.74984682  1
  W  W13  1  0.75015318  0.50000000  0.25015318  1
  W  W14  1  0.50000000  0.25015318  0.75015318  1
  W  W15  1  0.50000000  0.74984682  0.24984682  1
