# generated using pymatgen
data_786_Al8Ta4
_symmetry_space_group_name_H-M   'I4_1/amd'
_cell_length_a   12.71435555
_cell_length_b   12.71435555
_cell_length_c   12.71435555
_cell_angle_alpha   162.07556560
_cell_angle_beta   162.07556560
_cell_angle_gamma   25.45455274
_chemical_formula_structural   Al8Ta4
_chemical_formula_sum   'Al8 Ta4'
_cell_volume   194.61657508
loop_
 _symmetry_equiv_pos_site_id
 _symmetry_equiv_pos_as_xyz
  1  'x, y, z'
loop_
 _atom_type_symbol
  Al
  Ta
loop_
 _atom_site_type_symbol
 _atom_site_label
 _atom_site_symmetry_multiplicity
 _atom_site_fract_x
 _atom_site_fract_y
 _atom_site_fract_z
 _atom_site_occupancy
  Al  Al0  1  0.74932920  0.74932920  0.00000000  1
  Al  Al1  1  0.25067080  0.25067080  0.00000000  1
  Al  Al2  1  0.99932920  0.49932920  0.50000000  1
  Al  Al3  1  0.50067080  0.00067080  0.50000000  1
  Al  Al4  1  0.58766866  0.58766867  0.00000000  1
  Al  Al5  1  0.41233134  0.41233133  0.00000000  1
  Al  Al6  1  0.83766866  0.33766867  0.50000000  1
  Al  Al7  1  0.66233134  0.16233133  0.50000000  1
  Ta  Ta0  1  0.92367964  0.92367965  0.00000000  1
  Ta  Ta1  1  0.07632036  0.07632035  0.00000000  1
  Ta  Ta2  1  0.17367964  0.67367965  0.50000000  1
  Ta  Ta3  1  0.32632036  0.82632035  0.50000000  1
