# generated using pymatgen
data_801_Ag2Sn
_symmetry_space_group_name_H-M   'I4/mmm'
_cell_length_a   5.16658310
_cell_length_b   5.16658310
_cell_length_c   5.16658310
_cell_angle_alpha   137.87769675
_cell_angle_beta   137.87769675
_cell_angle_gamma   61.09036333
_chemical_formula_structural   Ag2Sn
_chemical_formula_sum   'Ag2 Sn1'
_cell_volume   61.35616850
loop_
 _symmetry_equiv_pos_site_id
 _symmetry_equiv_pos_as_xyz
  1  'x, y, z'
loop_
 _atom_type_symbol
  Ag
  Sn
loop_
 _atom_site_type_symbol
 _atom_site_label
 _atom_site_symmetry_multiplicity
 _atom_site_fract_x
 _atom_site_fract_y
 _atom_site_fract_z
 _atom_site_occupancy
  Ag  Ag0  1  0.66971276  0.66971276  0.00000000  1
  Ag  Ag1  1  0.33028724  0.33028724  0.00000000  1
  Sn  Sn0  1  0.00000000  0.00000000  0.00000000  1
