# generated using pymatgen
data_803_Au5Sr24
_symmetry_space_group_name_H-M   'I-43m'
_cell_length_a   12.51968975
_cell_length_b   12.51968975
_cell_length_c   12.51968975
_cell_angle_alpha   109.47122063
_cell_angle_beta   109.47122063
_cell_angle_gamma   109.47122063
_chemical_formula_structural   Au5Sr24
_chemical_formula_sum   'Au5 Sr24'
_cell_volume   1510.63245164
loop_
 _symmetry_equiv_pos_site_id
 _symmetry_equiv_pos_as_xyz
  1  'x, y, z'
loop_
 _atom_type_symbol
  Au
  Sr
loop_
 _atom_site_type_symbol
 _atom_site_label
 _atom_site_symmetry_multiplicity
 _atom_site_fract_x
 _atom_site_fract_y
 _atom_site_fract_z
 _atom_site_occupancy
  Au  Au0  1  1.00000000  0.48240132  0.00000000  1
  Au  Au1  1  0.48240132  0.00000000  0.00000000  1
  Au  Au2  1  1.00000000  1.00000000  0.48240132  1
  Au  Au3  1  0.51759868  0.51759868  0.51759868  1
  Au  Au4  1  0.00000000  0.00000000  0.00000000  1
  Sr  Sr0  1  0.18779802  0.37360275  0.00000000  1
  Sr  Sr1  1  0.37360275  0.18779802  0.00000000  1
  Sr  Sr2  1  0.81220198  0.81220198  0.18580473  1
  Sr  Sr3  1  0.62639725  0.62639725  0.81419527  1
  Sr  Sr4  1  0.81220198  0.18580473  0.81220198  1
  Sr  Sr5  1  0.62639725  0.81419527  0.62639725  1
  Sr  Sr6  1  0.37360275  0.00000000  0.18779802  1
  Sr  Sr7  1  0.18779802  0.00000000  0.37360275  1
  Sr  Sr8  1  1.00000000  0.37360275  0.18779802  1
  Sr  Sr9  1  1.00000000  0.18779802  0.37360275  1
  Sr  Sr10  1  0.81419527  0.62639725  0.62639725  1
  Sr  Sr11  1  0.18580473  0.81220198  0.81220198  1
  Sr  Sr12  1  0.71364658  0.42954375  0.00000000  1
  Sr  Sr13  1  0.42954375  0.71364658  0.00000000  1
  Sr  Sr14  1  0.28635342  0.28635342  0.71589717  1
  Sr  Sr15  1  0.57045625  0.57045625  0.28410283  1
  Sr  Sr16  1  0.28635342  0.71589717  0.28635342  1
  Sr  Sr17  1  0.57045625  0.28410283  0.57045625  1
  Sr  Sr18  1  0.42954375  0.00000000  0.71364658  1
  Sr  Sr19  1  0.71364658  0.00000000  0.42954375  1
  Sr  Sr20  1  1.00000000  0.42954375  0.71364658  1
  Sr  Sr21  1  0.00000000  0.71364658  0.42954375  1
  Sr  Sr22  1  0.28410283  0.57045625  0.57045625  1
  Sr  Sr23  1  0.71589717  0.28635342  0.28635342  1
