# generated using pymatgen
data_804_Au16Sr4
_symmetry_space_group_name_H-M   'I-43m'
_cell_length_a   8.45918788
_cell_length_b   8.45918788
_cell_length_c   8.45918788
_cell_angle_alpha   109.47122063
_cell_angle_beta   109.47122063
_cell_angle_gamma   109.47122063
_chemical_formula_structural   Au16Sr4
_chemical_formula_sum   'Au16 Sr4'
_cell_volume   465.97661458
loop_
 _symmetry_equiv_pos_site_id
 _symmetry_equiv_pos_as_xyz
  1  'x, y, z'
loop_
 _atom_type_symbol
  Au
  Sr
loop_
 _atom_site_type_symbol
 _atom_site_label
 _atom_site_symmetry_multiplicity
 _atom_site_fract_x
 _atom_site_fract_y
 _atom_site_fract_z
 _atom_site_occupancy
  Au  Au0  1  0.78828612  0.78828612  0.78828612  1
  Au  Au1  1  0.21171388  0.00000000  0.00000000  1
  Au  Au2  1  0.00000000  0.21171388  0.00000000  1
  Au  Au3  1  0.00000000  0.00000000  0.21171388  1
  Au  Au4  1  0.64772169  0.64772169  0.00000000  1
  Au  Au5  1  0.35227831  0.35227831  0.00000000  1
  Au  Au6  1  0.64772169  0.00000000  0.64772169  1
  Au  Au7  1  0.35227831  0.00000000  0.35227831  1
  Au  Au8  1  1.00000000  0.64772169  0.64772169  1
  Au  Au9  1  1.00000000  0.35227831  0.35227831  1
  Au  Au10  1  0.24976419  0.74976419  0.50000000  1
  Au  Au11  1  0.75023581  0.25023581  0.50000000  1
  Au  Au12  1  0.74976419  0.50000000  0.24976419  1
  Au  Au13  1  0.25023581  0.50000000  0.75023581  1
  Au  Au14  1  0.50000000  0.24976419  0.74976419  1
  Au  Au15  1  0.50000000  0.75023581  0.25023581  1
  Sr  Sr0  1  0.42845585  0.42845585  0.42845585  1
  Sr  Sr1  1  0.57154415  0.00000000  0.00000000  1
  Sr  Sr2  1  1.00000000  0.57154415  0.00000000  1
  Sr  Sr3  1  1.00000000  0.00000000  0.57154415  1
