# generated using pymatgen
data_809_PbAs3
_symmetry_space_group_name_H-M   'Cmmm'
_cell_length_a   4.92143223
_cell_length_b   4.92143223
_cell_length_c   3.65532372
_cell_angle_alpha   90.00000000
_cell_angle_beta   90.00000000
_cell_angle_gamma   91.24792916
_chemical_formula_structural   PbAs3
_chemical_formula_sum   'As3 Pb1'
_cell_volume   88.51275160
loop_
 _symmetry_equiv_pos_site_id
 _symmetry_equiv_pos_as_xyz
  1  'x, y, z'
loop_
 _atom_type_symbol
  As
  Pb
loop_
 _atom_site_type_symbol
 _atom_site_label
 _atom_site_symmetry_multiplicity
 _atom_site_fract_x
 _atom_site_fract_y
 _atom_site_fract_z
 _atom_site_occupancy
  As  As0  1  0.00000000  0.50000000  0.50000000  1
  As  As1  1  0.50000000  1.00000000  0.50000000  1
  As  As2  1  0.50000000  0.50000000  0.00000000  1
  Pb  Pb0  1  0.00000000  0.00000000  0.00000000  1
