# generated using pymatgen
data_812_V4W2
_symmetry_space_group_name_H-M   'I4_1/amd'
_cell_length_a   3.12621950
_cell_length_b   3.12507802
_cell_length_c   18.62733837
_cell_angle_alpha   90.00000000
_cell_angle_beta   90.00000000
_cell_angle_gamma   90.00000000
_chemical_formula_structural   V4W2
_chemical_formula_sum   'V8 W4'
_cell_volume   181.98313224
loop_
 _symmetry_equiv_pos_site_id
 _symmetry_equiv_pos_as_xyz
  1  'x, y, z'
loop_
 _atom_type_symbol
  V
  W
loop_
 _atom_site_type_symbol
 _atom_site_label
 _atom_site_symmetry_multiplicity
 _atom_site_fract_x
 _atom_site_fract_y
 _atom_site_fract_z
 _atom_site_occupancy
  V  V0  1  0.00000000  0.25000000  0.04893580  1
  V  V1  1  0.00000000  0.75000000  0.95106420  1
  V  V2  1  0.50000000  0.75000000  0.54893580  1
  V  V3  1  0.50000000  0.25000000  0.45106420  1
  V  V4  1  0.00000000  0.25000000  0.20115318  1
  V  V5  1  0.00000000  0.75000000  0.79884682  1
  V  V6  1  0.50000000  0.75000000  0.70115318  1
  V  V7  1  0.50000000  0.25000000  0.29884682  1
  W  W0  1  0.00000000  0.25000000  0.62504735  1
  W  W1  1  0.00000000  0.75000000  0.37495265  1
  W  W2  1  0.50000000  0.75000000  0.12504735  1
  W  W3  1  0.50000000  0.25000000  0.87495265  1
