# generated using pymatgen
data_815_Pd4Rh
_symmetry_space_group_name_H-M   'I4/m'
_cell_length_a   6.24291649
_cell_length_b   6.24291649
_cell_length_c   4.82705452
_cell_angle_alpha   49.70982419
_cell_angle_beta   49.70982419
_cell_angle_gamma   90.00000000
_chemical_formula_structural   Pd4Rh
_chemical_formula_sum   'Pd4 Rh1'
_cell_volume   76.10868231
loop_
 _symmetry_equiv_pos_site_id
 _symmetry_equiv_pos_as_xyz
  1  'x, y, z'
loop_
 _atom_type_symbol
  Pd
  Rh
loop_
 _atom_site_type_symbol
 _atom_site_label
 _atom_site_symmetry_multiplicity
 _atom_site_fract_x
 _atom_site_fract_y
 _atom_site_fract_z
 _atom_site_occupancy
  Pd  Pd0  1  0.79864010  0.60059642  0.00000000  1
  Pd  Pd1  1  0.20135990  0.39940358  0.00000000  1
  Pd  Pd2  1  0.60059642  0.20135990  0.00000000  1
  Pd  Pd3  1  0.39940358  0.79864010  0.00000000  1
  Rh  Rh0  1  0.00000000  0.00000000  0.00000000  1
