# generated using pymatgen
data_816_Al3In
_symmetry_space_group_name_H-M   'Pmm2'
_cell_length_a   3.02250803
_cell_length_b   4.83714065
_cell_length_c   5.33802190
_cell_angle_alpha   90.00000000
_cell_angle_beta   90.00000000
_cell_angle_gamma   90.00000000
_chemical_formula_structural   Al3In
_chemical_formula_sum   'Al3 In1'
_cell_volume   78.04346267
loop_
 _symmetry_equiv_pos_site_id
 _symmetry_equiv_pos_as_xyz
  1  'x, y, z'
loop_
 _atom_type_symbol
  Al
  In
loop_
 _atom_site_type_symbol
 _atom_site_label
 _atom_site_symmetry_multiplicity
 _atom_site_fract_x
 _atom_site_fract_y
 _atom_site_fract_z
 _atom_site_occupancy
  Al  Al0  1  0.00000000  0.00000000  0.98287472  1
  Al  Al1  1  0.50000000  0.00000000  0.52596176  1
  Al  Al2  1  0.50000000  0.50000000  0.83108234  1
  In  In0  1  0.00000000  0.50000000  0.32674785  1
