# generated using pymatgen
data_829_Fe3Pb
_symmetry_space_group_name_H-M   'Fm -3 m'
_cell_length_a   4.24464559
_cell_length_b   4.24464559
_cell_length_c   4.24464559
_cell_angle_alpha   60.00000000
_cell_angle_beta   60.00000000
_cell_angle_gamma   60.00000000
_chemical_formula_structural   Fe3Pb
_chemical_formula_sum   'Fe3 Pb1'
_cell_volume   54.07659090
loop_
 _symmetry_equiv_pos_site_id
 _symmetry_equiv_pos_as_xyz
  1  'x, y, z'
loop_
 _atom_type_symbol
  Fe
  Pb
loop_
 _atom_site_type_symbol
 _atom_site_label
 _atom_site_symmetry_multiplicity
 _atom_site_fract_x
 _atom_site_fract_y
 _atom_site_fract_z
 _atom_site_occupancy
  Fe  Fe0  1  0.00000000  0.00000000  0.00000000  1
  Fe  Fe1  1  0.25000000  0.25000000  0.25000000  1
  Fe  Fe2  1  0.50000000  0.50000000  0.50000000  1
  Pb  Pb0  1  0.75000000  0.75000000  0.75000000  1
