# generated using pymatgen
data_830_Mn4W16
_symmetry_space_group_name_H-M   'I-43m'
_cell_length_a   7.58832190
_cell_length_b   7.58832190
_cell_length_c   7.58832190
_cell_angle_alpha   109.47122063
_cell_angle_beta   109.47122063
_cell_angle_gamma   109.47122063
_chemical_formula_structural   Mn4W16
_chemical_formula_sum   'Mn4 W16'
_cell_volume   336.36852087
loop_
 _symmetry_equiv_pos_site_id
 _symmetry_equiv_pos_as_xyz
  1  'x, y, z'
loop_
 _atom_type_symbol
  Mn
  W
loop_
 _atom_site_type_symbol
 _atom_site_label
 _atom_site_symmetry_multiplicity
 _atom_site_fract_x
 _atom_site_fract_y
 _atom_site_fract_z
 _atom_site_occupancy
  Mn  Mn0  1  0.68862516  0.00000000  0.00000000  1
  Mn  Mn1  1  0.31137484  0.31137484  0.31137484  1
  Mn  Mn2  1  0.00000000  1.00000000  0.68862516  1
  Mn  Mn3  1  0.00000000  0.68862516  0.00000000  1
  W  W0  1  0.37674117  0.00000000  0.00000000  1
  W  W1  1  0.62325883  0.62325883  0.62325883  1
  W  W2  1  0.00000000  0.00000000  0.37674117  1
  W  W3  1  1.00000000  0.37674117  0.00000000  1
  W  W4  1  0.32299381  0.32299381  0.00000000  1
  W  W5  1  0.67700619  0.67700619  0.00000000  1
  W  W6  1  0.32299381  1.00000000  0.32299381  1
  W  W7  1  0.67700619  0.00000000  0.67700619  1
  W  W8  1  1.00000000  0.67700619  0.67700619  1
  W  W9  1  0.00000000  0.32299381  0.32299381  1
  W  W10  1  0.74987892  0.24987892  0.50000000  1
  W  W11  1  0.25012108  0.75012108  0.50000000  1
  W  W12  1  0.24987892  0.50000000  0.74987892  1
  W  W13  1  0.75012108  0.50000000  0.25012108  1
  W  W14  1  0.50000000  0.25012108  0.75012108  1
  W  W15  1  0.50000000  0.74987892  0.24987892  1
