# generated using pymatgen
data_831_Ag4Ge12
_symmetry_space_group_name_H-M   'Pnma'
_cell_length_a   5.69819726
_cell_length_b   5.51864936
_cell_length_c   9.80048221
_cell_angle_alpha   90.00000000
_cell_angle_beta   90.00000000
_cell_angle_gamma   90.00000000
_chemical_formula_structural   Ag4Ge12
_chemical_formula_sum   'Ag4 Ge12'
_cell_volume   308.18941983
loop_
 _symmetry_equiv_pos_site_id
 _symmetry_equiv_pos_as_xyz
  1  'x, y, z'
loop_
 _atom_type_symbol
  Ag
  Ge
loop_
 _atom_site_type_symbol
 _atom_site_label
 _atom_site_symmetry_multiplicity
 _atom_site_fract_x
 _atom_site_fract_y
 _atom_site_fract_z
 _atom_site_occupancy
  Ag  Ag0  1  0.65194925  0.94574299  0.75000000  1
  Ag  Ag1  1  0.15194925  0.55425701  0.25000000  1
  Ag  Ag2  1  0.84805075  0.44574299  0.75000000  1
  Ag  Ag3  1  0.34805075  0.05425701  0.25000000  1
  Ge  Ge0  1  0.13999666  0.97253716  0.75000000  1
  Ge  Ge1  1  0.63999666  0.52746284  0.25000000  1
  Ge  Ge2  1  0.36000334  0.47253716  0.75000000  1
  Ge  Ge3  1  0.86000334  0.02746284  0.25000000  1
  Ge  Ge4  1  0.66621531  0.22375661  0.00362478  1
  Ge  Ge5  1  0.16621531  0.27624339  0.99637522  1
  Ge  Ge6  1  0.83378469  0.72375661  0.49637522  1
  Ge  Ge7  1  0.33378469  0.77624339  0.50362478  1
  Ge  Ge8  1  0.33378469  0.77624339  0.99637522  1
  Ge  Ge9  1  0.83378469  0.72375661  0.00362478  1
  Ge  Ge10  1  0.16621531  0.27624339  0.50362478  1
  Ge  Ge11  1  0.66621531  0.22375661  0.49637522  1
