# generated using pymatgen
data_834_Ag5Sn3
_symmetry_space_group_name_H-M   'Cmmm'
_cell_length_a   6.19899030
_cell_length_b   6.19899030
_cell_length_c   4.34252260
_cell_angle_alpha   90.00000000
_cell_angle_beta   90.00000000
_cell_angle_gamma   91.08966450
_chemical_formula_structural   Ag5Sn3
_chemical_formula_sum   'Ag5 Sn3'
_cell_volume   166.84202616
loop_
 _symmetry_equiv_pos_site_id
 _symmetry_equiv_pos_as_xyz
  1  'x, y, z'
loop_
 _atom_type_symbol
  Ag
  Sn
loop_
 _atom_site_type_symbol
 _atom_site_label
 _atom_site_symmetry_multiplicity
 _atom_site_fract_x
 _atom_site_fract_y
 _atom_site_fract_z
 _atom_site_occupancy
  Ag  Ag0  1  0.00000000  0.00000000  0.00000000  1
  Ag  Ag1  1  0.00000000  0.50000000  0.00000000  1
  Ag  Ag2  1  0.50000000  0.00000000  0.00000000  1
  Ag  Ag3  1  0.25182231  0.25182231  0.50000000  1
  Ag  Ag4  1  0.74817769  0.74817769  0.50000000  1
  Sn  Sn0  1  0.50000000  0.50000000  0.00000000  1
  Sn  Sn1  1  0.76880883  0.23119117  0.50000000  1
  Sn  Sn2  1  0.23119117  0.76880883  0.50000000  1
