# generated using pymatgen
data_835_Ag3Br
_symmetry_space_group_name_H-M   'Immm'
_cell_length_a   5.77738719
_cell_length_b   5.77738719
_cell_length_c   5.77738719
_cell_angle_alpha   141.92565974
_cell_angle_beta   135.19983247
_cell_angle_gamma   60.21280865
_chemical_formula_structural   Ag3Br
_chemical_formula_sum   'Ag3 Br1'
_cell_volume   82.94389532
loop_
 _symmetry_equiv_pos_site_id
 _symmetry_equiv_pos_as_xyz
  1  'x, y, z'
loop_
 _atom_type_symbol
  Ag
  Br
loop_
 _atom_site_type_symbol
 _atom_site_label
 _atom_site_symmetry_multiplicity
 _atom_site_fract_x
 _atom_site_fract_y
 _atom_site_fract_z
 _atom_site_occupancy
  Ag  Ag0  1  0.99050518  0.99050518  1.00000000  1
  Ag  Ag1  1  0.75000000  0.25000000  0.50000000  1
  Ag  Ag2  1  0.50949482  0.50949482  0.00000000  1
  Br  Br0  1  0.25000000  0.75000000  0.50000000  1
