# generated using pymatgen
data_839_Pb4As4
_symmetry_space_group_name_H-M   'Pnma'
_cell_length_a   4.15415742
_cell_length_b   7.17429742
_cell_length_c   7.38498137
_cell_angle_alpha   90.00000000
_cell_angle_beta   90.00000000
_cell_angle_gamma   90.00000000
_chemical_formula_structural   Pb4As4
_chemical_formula_sum   'As4 Pb4'
_cell_volume   220.09578772
loop_
 _symmetry_equiv_pos_site_id
 _symmetry_equiv_pos_as_xyz
  1  'x, y, z'
loop_
 _atom_type_symbol
  As
  Pb
loop_
 _atom_site_type_symbol
 _atom_site_label
 _atom_site_symmetry_multiplicity
 _atom_site_fract_x
 _atom_site_fract_y
 _atom_site_fract_z
 _atom_site_occupancy
  As  As0  1  0.75000000  0.91637181  0.24209229  1
  As  As1  1  0.25000000  0.41637181  0.25790771  1
  As  As2  1  0.75000000  0.58362819  0.74209229  1
  As  As3  1  0.25000000  0.08362819  0.75790771  1
  Pb  Pb0  1  0.75000000  0.25872855  0.00909358  1
  Pb  Pb1  1  0.25000000  0.75872855  0.49090642  1
  Pb  Pb2  1  0.75000000  0.24127145  0.50909358  1
  Pb  Pb3  1  0.25000000  0.74127145  0.99090642  1
