# generated using pymatgen
data_846_In2Ta2
_symmetry_space_group_name_H-M   'Pmma'
_cell_length_a   2.96044867
_cell_length_b   5.03393323
_cell_length_c   5.34371116
_cell_angle_alpha   90.00000000
_cell_angle_beta   90.00000000
_cell_angle_gamma   90.00000000
_chemical_formula_structural   In2Ta2
_chemical_formula_sum   'In2 Ta2'
_cell_volume   79.63572930
loop_
 _symmetry_equiv_pos_site_id
 _symmetry_equiv_pos_as_xyz
  1  'x, y, z'
loop_
 _atom_type_symbol
  In
  Ta
loop_
 _atom_site_type_symbol
 _atom_site_label
 _atom_site_symmetry_multiplicity
 _atom_site_fract_x
 _atom_site_fract_y
 _atom_site_fract_z
 _atom_site_occupancy
  In  In0  1  0.00000000  0.00000000  0.01672033  1
  In  In1  1  0.00000000  0.50000000  0.31661301  1
  Ta  Ta0  1  0.50000000  0.00000000  0.53253040  1
  Ta  Ta1  1  0.50000000  0.50000000  0.80080293  1
