# generated using pymatgen
data_921_Cr4P8
_symmetry_space_group_name_H-M   'Pa -3'
_cell_length_a   5.68070193
_cell_length_b   5.68070193
_cell_length_c   5.68070193
_cell_angle_alpha   90.00000000
_cell_angle_beta   90.00000000
_cell_angle_gamma   90.00000000
_chemical_formula_structural   Cr4P8
_chemical_formula_sum   'Cr4 P8'
_cell_volume   183.31837824
loop_
 _symmetry_equiv_pos_site_id
 _symmetry_equiv_pos_as_xyz
  1  'x, y, z'
loop_
 _atom_type_symbol
  Cr
  P
loop_
 _atom_site_type_symbol
 _atom_site_label
 _atom_site_symmetry_multiplicity
 _atom_site_fract_x
 _atom_site_fract_y
 _atom_site_fract_z
 _atom_site_occupancy
  Cr  Cr0  1  0.00000000  0.00000000  0.00000000  1
  Cr  Cr1  1  0.50000000  0.50000000  0.00000000  1
  Cr  Cr2  1  0.50000000  0.00000000  0.50000000  1
  Cr  Cr3  1  0.00000000  0.50000000  0.50000000  1
  P  P0  1  0.61391945  0.61391945  0.38608055  1
  P  P1  1  0.38608055  0.38608055  0.61391945  1
  P  P2  1  0.11391945  0.88608055  0.61391945  1
  P  P3  1  0.88608055  0.11391945  0.38608055  1
  P  P4  1  0.38608055  0.11391945  0.11391945  1
  P  P5  1  0.61391945  0.88608055  0.88608055  1
  P  P6  1  0.88608055  0.38608055  0.88608055  1
  P  P7  1  0.11391945  0.61391945  0.11391945  1
