# generated using pymatgen
data_925_In5Sn
_symmetry_space_group_name_H-M   'Cm'
_cell_length_a   6.44067291
_cell_length_b   6.44067291
_cell_length_c   7.95631017
_cell_angle_alpha   75.65175913
_cell_angle_beta   75.65175913
_cell_angle_gamma   31.10995364
_chemical_formula_structural   In5Sn
_chemical_formula_sum   'In5 Sn1'
_cell_volume   164.79019318
loop_
 _symmetry_equiv_pos_site_id
 _symmetry_equiv_pos_as_xyz
  1  'x, y, z'
loop_
 _atom_type_symbol
  In
  Sn
loop_
 _atom_site_type_symbol
 _atom_site_label
 _atom_site_symmetry_multiplicity
 _atom_site_fract_x
 _atom_site_fract_y
 _atom_site_fract_z
 _atom_site_occupancy
  In  In0  1  0.99923095  0.99923095  0.00039644  1
  In  In1  1  0.33333922  0.33333922  0.33316942  1
  In  In2  1  0.66695845  0.66695845  0.66705158  1
  In  In3  1  0.61191091  0.61191091  0.27617309  1
  In  In4  1  0.94417368  0.94417368  0.61137651  1
  Sn  Sn0  1  0.27772013  0.27772013  0.94516630  1
