# generated using pymatgen
data_926_Nb4Pb4
_symmetry_space_group_name_H-M   'Pnma'
_cell_length_a   4.95638587
_cell_length_b   5.53810466
_cell_length_c   6.44020388
_cell_angle_alpha   90.00000000
_cell_angle_beta   90.00000000
_cell_angle_gamma   90.00000000
_chemical_formula_structural   Nb4Pb4
_chemical_formula_sum   'Nb4 Pb4'
_cell_volume   176.77705122
loop_
 _symmetry_equiv_pos_site_id
 _symmetry_equiv_pos_as_xyz
  1  'x, y, z'
loop_
 _atom_type_symbol
  Nb
  Pb
loop_
 _atom_site_type_symbol
 _atom_site_label
 _atom_site_symmetry_multiplicity
 _atom_site_fract_x
 _atom_site_fract_y
 _atom_site_fract_z
 _atom_site_occupancy
  Nb  Nb0  1  0.75000000  0.80750038  0.19975483  1
  Nb  Nb1  1  0.25000000  0.30750038  0.30024517  1
  Nb  Nb2  1  0.75000000  0.69249962  0.69975483  1
  Nb  Nb3  1  0.25000000  0.19249962  0.80024517  1
  Pb  Pb0  1  0.75000000  0.29907354  0.04212405  1
  Pb  Pb1  1  0.25000000  0.79907354  0.45787595  1
  Pb  Pb2  1  0.75000000  0.20092646  0.54212405  1
  Pb  Pb3  1  0.25000000  0.70092646  0.95787595  1
