# generated using pymatgen
data_927_Pb2Sb2
_symmetry_space_group_name_H-M   'Imma'
_cell_length_a   6.46403675
_cell_length_b   6.46403675
_cell_length_c   6.46403675
_cell_angle_alpha   143.95465558
_cell_angle_beta   129.78383165
_cell_angle_gamma   63.35607585
_chemical_formula_structural   Pb2Sb2
_chemical_formula_sum   'Pb2 Sb2'
_cell_volume   120.70329894
loop_
 _symmetry_equiv_pos_site_id
 _symmetry_equiv_pos_as_xyz
  1  'x, y, z'
loop_
 _atom_type_symbol
  Pb
  Sb
loop_
 _atom_site_type_symbol
 _atom_site_label
 _atom_site_symmetry_multiplicity
 _atom_site_fract_x
 _atom_site_fract_y
 _atom_site_fract_z
 _atom_site_occupancy
  Pb  Pb0  1  0.01631258  0.01631258  1.00000000  1
  Pb  Pb1  1  0.73368742  0.23368742  0.50000000  1
  Sb  Sb0  1  0.47835850  0.47835850  1.00000000  1
  Sb  Sb1  1  0.27164150  0.77164150  0.50000000  1
