# generated using pymatgen
data_929_GeP3
_symmetry_space_group_name_H-M   'Immm'
_cell_length_a   5.19738142
_cell_length_b   5.19738142
_cell_length_c   5.19738142
_cell_angle_alpha   144.42538871
_cell_angle_beta   124.82703431
_cell_angle_gamma   67.38980539
_chemical_formula_structural   GeP3
_chemical_formula_sum   'Ge1 P3'
_cell_volume   66.09831751
loop_
 _symmetry_equiv_pos_site_id
 _symmetry_equiv_pos_as_xyz
  1  'x, y, z'
loop_
 _atom_type_symbol
  Ge
  P
loop_
 _atom_site_type_symbol
 _atom_site_label
 _atom_site_symmetry_multiplicity
 _atom_site_fract_x
 _atom_site_fract_y
 _atom_site_fract_z
 _atom_site_occupancy
  Ge  Ge0  1  0.50000000  0.00000000  0.50000000  1
  P  P0  1  0.19752246  0.19752246  1.00000000  1
  P  P1  1  0.80247754  0.80247754  1.00000000  1
  P  P2  1  0.00000000  0.50000000  0.50000000  1
