# generated using pymatgen
data_934_Nb2Pb4
_symmetry_space_group_name_H-M   'Pnnm'
_cell_length_a   3.14200454
_cell_length_b   7.37238224
_cell_length_c   7.77109672
_cell_angle_alpha   90.00000000
_cell_angle_beta   90.00000000
_cell_angle_gamma   90.00000000
_chemical_formula_structural   Nb2Pb4
_chemical_formula_sum   'Nb2 Pb4'
_cell_volume   180.01013879
loop_
 _symmetry_equiv_pos_site_id
 _symmetry_equiv_pos_as_xyz
  1  'x, y, z'
loop_
 _atom_type_symbol
  Nb
  Pb
loop_
 _atom_site_type_symbol
 _atom_site_label
 _atom_site_symmetry_multiplicity
 _atom_site_fract_x
 _atom_site_fract_y
 _atom_site_fract_z
 _atom_site_occupancy
  Nb  Nb0  1  0.00000000  0.00000000  0.00000000  1
  Nb  Nb1  1  0.50000000  0.50000000  0.50000000  1
  Pb  Pb0  1  0.00000000  0.26658167  0.73296476  1
  Pb  Pb1  1  0.00000000  0.73341833  0.26703524  1
  Pb  Pb2  1  0.50000000  0.76658167  0.76703524  1
  Pb  Pb3  1  0.50000000  0.23341833  0.23296476  1
