# generated using pymatgen
data_937_V4Br2
_symmetry_space_group_name_H-M   'I4_1/amd'
_cell_length_a   11.19196875
_cell_length_b   11.19196875
_cell_length_c   11.19196875
_cell_angle_alpha   164.46926522
_cell_angle_beta   164.46926522
_cell_angle_gamma   22.03208655
_chemical_formula_structural   V4Br2
_chemical_formula_sum   'Br2 V4'
_cell_volume   100.48942378
loop_
 _symmetry_equiv_pos_site_id
 _symmetry_equiv_pos_as_xyz
  1  'x, y, z'
loop_
 _atom_type_symbol
  Br
  V
loop_
 _atom_site_type_symbol
 _atom_site_label
 _atom_site_symmetry_multiplicity
 _atom_site_fract_x
 _atom_site_fract_y
 _atom_site_fract_z
 _atom_site_occupancy
  Br  Br0  1  0.00000000  0.00000000  0.00000000  1
  Br  Br1  1  0.25000000  0.75000000  0.50000000  1
  V  V0  1  0.58409724  0.58409724  0.00000000  1
  V  V1  1  0.66590276  0.16590276  0.50000000  1
  V  V2  1  0.41590276  0.41590276  0.00000000  1
  V  V3  1  0.83409724  0.33409724  0.50000000  1
