# generated using pymatgen
data_93_GaGe
_symmetry_space_group_name_H-M   'R -3 m'
_cell_length_a   5.07628872
_cell_length_b   5.07628872
_cell_length_c   5.07628868
_cell_angle_alpha   34.68808695
_cell_angle_beta   34.68808695
_cell_angle_gamma   34.68808925
_chemical_formula_structural   GaGe
_chemical_formula_sum   'Ga1 Ge1'
_cell_volume   37.80873242
loop_
 _symmetry_equiv_pos_site_id
 _symmetry_equiv_pos_as_xyz
  1  'x, y, z'
loop_
 _atom_type_symbol
  Ga
  Ge
loop_
 _atom_site_type_symbol
 _atom_site_label
 _atom_site_symmetry_multiplicity
 _atom_site_fract_x
 _atom_site_fract_y
 _atom_site_fract_z
 _atom_site_occupancy
  Ga  Ga0  1  0.00000000  0.00000000  0.00000000  1
  Ge  Ge0  1  0.50000000  0.50000000  0.50000000  1
