# generated using pymatgen
data_944_Sb5Ge
_symmetry_space_group_name_H-M   'Cmmm'
_cell_length_a   7.37003026
_cell_length_b   7.37003026
_cell_length_c   4.74495932
_cell_angle_alpha   90.00000000
_cell_angle_beta   90.00000000
_cell_angle_gamma   142.06724761
_chemical_formula_structural   Sb5Ge
_chemical_formula_sum   'Ge1 Sb5'
_cell_volume   158.43816435
loop_
 _symmetry_equiv_pos_site_id
 _symmetry_equiv_pos_as_xyz
  1  'x, y, z'
loop_
 _atom_type_symbol
  Ge
  Sb
loop_
 _atom_site_type_symbol
 _atom_site_label
 _atom_site_symmetry_multiplicity
 _atom_site_fract_x
 _atom_site_fract_y
 _atom_site_fract_z
 _atom_site_occupancy
  Ge  Ge0  1  0.97277908  0.02722092  0.00000000  1
  Sb  Sb0  1  0.80812295  0.19187705  0.50000000  1
  Sb  Sb1  1  0.62835820  0.37164180  0.00000000  1
  Sb  Sb2  1  0.47202834  0.52797166  0.50000000  1
  Sb  Sb3  1  0.31655519  0.68344481  0.00000000  1
  Sb  Sb4  1  0.13548957  0.86451043  0.50000000  1
