# generated using pymatgen
data_947_Au12Nb12
_symmetry_space_group_name_H-M   'Pbcm'
_cell_length_a   9.83703359
_cell_length_b   8.14906107
_cell_length_c   5.44791708
_cell_angle_alpha   90.00000000
_cell_angle_beta   90.00000000
_cell_angle_gamma   90.00000000
_chemical_formula_structural   Au12Nb12
_chemical_formula_sum   'Au12 Nb12'
_cell_volume   436.71912947
loop_
 _symmetry_equiv_pos_site_id
 _symmetry_equiv_pos_as_xyz
  1  'x, y, z'
loop_
 _atom_type_symbol
  Au
  Nb
loop_
 _atom_site_type_symbol
 _atom_site_label
 _atom_site_symmetry_multiplicity
 _atom_site_fract_x
 _atom_site_fract_y
 _atom_site_fract_z
 _atom_site_occupancy
  Au  Au0  1  0.13371061  0.89232759  0.25000000  1
  Au  Au1  1  0.86628939  0.10767241  0.75000000  1
  Au  Au2  1  0.86628939  0.39232759  0.25000000  1
  Au  Au3  1  0.13371061  0.60767241  0.75000000  1
  Au  Au4  1  0.43368804  0.45194166  0.25000000  1
  Au  Au5  1  0.56631196  0.54805834  0.75000000  1
  Au  Au6  1  0.56631196  0.95194166  0.25000000  1
  Au  Au7  1  0.43368804  0.04805834  0.75000000  1
  Au  Au8  1  0.08597306  0.25000000  0.00000000  1
  Au  Au9  1  0.91402694  0.75000000  0.50000000  1
  Au  Au10  1  0.91402694  0.75000000  0.00000000  1
  Au  Au11  1  0.08597306  0.25000000  0.50000000  1
  Nb  Nb0  1  0.16291699  0.54235440  0.25000000  1
  Nb  Nb1  1  0.83708301  0.45764560  0.75000000  1
  Nb  Nb2  1  0.83708301  0.04235440  0.25000000  1
  Nb  Nb3  1  0.16291699  0.95764560  0.75000000  1
  Nb  Nb4  1  0.33002147  0.13982298  0.25000000  1
  Nb  Nb5  1  0.66997853  0.86017702  0.75000000  1
  Nb  Nb6  1  0.66997853  0.63982298  0.25000000  1
  Nb  Nb7  1  0.33002147  0.36017702  0.75000000  1
  Nb  Nb8  1  0.62845844  0.25000000  0.00000000  1
  Nb  Nb9  1  0.37154156  0.75000000  0.50000000  1
  Nb  Nb10  1  0.37154156  0.75000000  0.00000000  1
  Nb  Nb11  1  0.62845844  0.25000000  0.50000000  1
