# generated using pymatgen
data_954_Ga24Pt5
_symmetry_space_group_name_H-M   'I-43m'
_cell_length_a   8.80883511
_cell_length_b   8.80883511
_cell_length_c   8.80883511
_cell_angle_alpha   109.47122063
_cell_angle_beta   109.47122063
_cell_angle_gamma   109.47122063
_chemical_formula_structural   Ga24Pt5
_chemical_formula_sum   'Ga24 Pt5'
_cell_volume   526.17904772
loop_
 _symmetry_equiv_pos_site_id
 _symmetry_equiv_pos_as_xyz
  1  'x, y, z'
loop_
 _atom_type_symbol
  Ga
  Pt
loop_
 _atom_site_type_symbol
 _atom_site_label
 _atom_site_symmetry_multiplicity
 _atom_site_fract_x
 _atom_site_fract_y
 _atom_site_fract_z
 _atom_site_occupancy
  Ga  Ga0  1  0.18526161  0.36895777  0.00000000  1
  Ga  Ga1  1  0.36895777  0.18526161  0.00000000  1
  Ga  Ga2  1  0.81473839  0.81473839  0.18369617  1
  Ga  Ga3  1  0.63104223  0.63104223  0.81630383  1
  Ga  Ga4  1  0.81473839  0.18369617  0.81473839  1
  Ga  Ga5  1  0.63104223  0.81630383  0.63104223  1
  Ga  Ga6  1  0.36895777  0.00000000  0.18526161  1
  Ga  Ga7  1  0.18526161  0.00000000  0.36895777  1
  Ga  Ga8  1  0.00000000  0.36895777  0.18526161  1
  Ga  Ga9  1  0.00000000  0.18526161  0.36895777  1
  Ga  Ga10  1  0.81630383  0.63104223  0.63104223  1
  Ga  Ga11  1  0.18369617  0.81473839  0.81473839  1
  Ga  Ga12  1  0.71241406  0.43351176  0.00000000  1
  Ga  Ga13  1  0.43351176  0.71241406  0.00000000  1
  Ga  Ga14  1  0.28758594  0.28758594  0.72109770  1
  Ga  Ga15  1  0.56648824  0.56648824  0.27890230  1
  Ga  Ga16  1  0.28758594  0.72109770  0.28758594  1
  Ga  Ga17  1  0.56648824  0.27890230  0.56648824  1
  Ga  Ga18  1  0.43351176  0.00000000  0.71241406  1
  Ga  Ga19  1  0.71241406  0.00000000  0.43351176  1
  Ga  Ga20  1  1.00000000  0.43351176  0.71241406  1
  Ga  Ga21  1  1.00000000  0.71241406  0.43351176  1
  Ga  Ga22  1  0.27890230  0.56648824  0.56648824  1
  Ga  Ga23  1  0.72109770  0.28758594  0.28758594  1
  Pt  Pt0  1  1.00000000  0.68602398  0.00000000  1
  Pt  Pt1  1  0.68602398  0.00000000  0.00000000  1
  Pt  Pt2  1  1.00000000  0.00000000  0.68602398  1
  Pt  Pt3  1  0.31397602  0.31397602  0.31397602  1
  Pt  Pt4  1  0.00000000  0.00000000  0.00000000  1
