# generated using pymatgen
data_956_GaU
_symmetry_space_group_name_H-M   'R -3 m'
_cell_length_a   5.40987132
_cell_length_b   5.40987132
_cell_length_c   5.40987087
_cell_angle_alpha   31.75824399
_cell_angle_beta   31.75824399
_cell_angle_gamma   31.75824094
_chemical_formula_structural   GaU
_chemical_formula_sum   'Ga1 U1'
_cell_volume   38.95624258
loop_
 _symmetry_equiv_pos_site_id
 _symmetry_equiv_pos_as_xyz
  1  'x, y, z'
loop_
 _atom_type_symbol
  Ga
  U
loop_
 _atom_site_type_symbol
 _atom_site_label
 _atom_site_symmetry_multiplicity
 _atom_site_fract_x
 _atom_site_fract_y
 _atom_site_fract_z
 _atom_site_occupancy
  Ga  Ga0  1  0.00000000  0.00000000  0.00000000  1
  U  U0  1  0.49999977  0.49999977  0.50000037  1
