# generated using pymatgen
data_960_In2Br4
_symmetry_space_group_name_H-M   'Cmcm'
_cell_length_a   10.35595904
_cell_length_b   10.35595904
_cell_length_c   4.52160012
_cell_angle_alpha   90.00000000
_cell_angle_beta   90.00000000
_cell_angle_gamma   156.73776956
_chemical_formula_structural   In2Br4
_chemical_formula_sum   'Br4 In2'
_cell_volume   191.51548441
loop_
 _symmetry_equiv_pos_site_id
 _symmetry_equiv_pos_as_xyz
  1  'x, y, z'
loop_
 _atom_type_symbol
  Br
  In
loop_
 _atom_site_type_symbol
 _atom_site_label
 _atom_site_symmetry_multiplicity
 _atom_site_fract_x
 _atom_site_fract_y
 _atom_site_fract_z
 _atom_site_occupancy
  Br  Br0  1  0.41856036  0.58143964  0.25000000  1
  Br  Br1  1  0.58143964  0.41856036  0.75000000  1
  Br  Br2  1  0.74489166  0.25510834  0.25000000  1
  Br  Br3  1  0.25510834  0.74489166  0.75000000  1
  In  In0  1  0.11566836  0.88433164  0.25000000  1
  In  In1  1  0.88433164  0.11566836  0.75000000  1
