# generated using pymatgen
data_962_In2Na
_symmetry_space_group_name_H-M   'I4/mmm'
_cell_length_a   6.34529610
_cell_length_b   6.34529610
_cell_length_c   6.34529610
_cell_angle_alpha   145.24300792
_cell_angle_beta   145.24300792
_cell_angle_gamma   49.97253485
_chemical_formula_structural   In2Na
_chemical_formula_sum   'In2 Na1'
_cell_volume   82.63420245
loop_
 _symmetry_equiv_pos_site_id
 _symmetry_equiv_pos_as_xyz
  1  'x, y, z'
loop_
 _atom_type_symbol
  In
  Na
loop_
 _atom_site_type_symbol
 _atom_site_label
 _atom_site_symmetry_multiplicity
 _atom_site_fract_x
 _atom_site_fract_y
 _atom_site_fract_z
 _atom_site_occupancy
  In  In0  1  0.00592498  0.00592498  0.00000000  1
  In  In1  1  0.66074168  0.66074168  0.00000000  1
  Na  Na0  1  0.33333333  0.33333333  0.00000000  1
