# generated using pymatgen
data_964_KMn
_symmetry_space_group_name_H-M   'P-6m2'
_cell_length_a   3.31137404
_cell_length_b   3.31138340
_cell_length_c   6.10807957
_cell_angle_alpha   90.00000000
_cell_angle_beta   90.00000000
_cell_angle_gamma   119.99991616
_chemical_formula_structural   KMn
_chemical_formula_sum   'K1 Mn1'
_cell_volume   58.00339194
loop_
 _symmetry_equiv_pos_site_id
 _symmetry_equiv_pos_as_xyz
  1  'x, y, z'
loop_
 _atom_type_symbol
  K
  Mn
loop_
 _atom_site_type_symbol
 _atom_site_label
 _atom_site_symmetry_multiplicity
 _atom_site_fract_x
 _atom_site_fract_y
 _atom_site_fract_z
 _atom_site_occupancy
  K  K0  1  0.66666890  0.33333501  0.75000051  1
  Mn  Mn0  1  0.33333337  0.66666660  0.25000017  1
