# generated using pymatgen
data_966_Ag2Ca
_symmetry_space_group_name_H-M   'I4/mmm'
_cell_length_a   5.54750211
_cell_length_b   5.54750211
_cell_length_c   7.49963811
_cell_angle_alpha   70.34531251
_cell_angle_beta   70.34531251
_cell_angle_gamma   39.15629823
_chemical_formula_structural   Ag2Ca
_chemical_formula_sum   'Ag4 Ca2'
_cell_volume   136.13293690
loop_
 _symmetry_equiv_pos_site_id
 _symmetry_equiv_pos_as_xyz
  1  'x, y, z'
loop_
 _atom_type_symbol
  Ag
  Ca
loop_
 _atom_site_type_symbol
 _atom_site_label
 _atom_site_symmetry_multiplicity
 _atom_site_fract_x
 _atom_site_fract_y
 _atom_site_fract_z
 _atom_site_occupancy
  Ag  Ag0  1  0.01645142  0.01645142  0.94892806  1
  Ag  Ag1  1  0.37434005  0.37434005  0.27043030  1
  Ag  Ag2  1  0.37243747  0.37243747  0.77329416  1
  Ag  Ag3  1  0.01454884  0.01454884  0.45179192  1
  Ca  Ca0  1  0.69424314  0.69424314  0.61063596  1
  Ca  Ca1  1  0.69464575  0.69464575  0.11158626  1
