# generated using pymatgen
data_96_Mn3Sn
_symmetry_space_group_name_H-M   'I4/mmm'
_cell_length_a   4.54597139
_cell_length_b   4.54597139
_cell_length_c   4.54597139
_cell_angle_alpha   129.42609188
_cell_angle_beta   129.42609188
_cell_angle_gamma   74.32593327
_chemical_formula_structural   Mn3Sn
_chemical_formula_sum   'Mn3 Sn1'
_cell_volume   54.64116973
loop_
 _symmetry_equiv_pos_site_id
 _symmetry_equiv_pos_as_xyz
  1  'x, y, z'
loop_
 _atom_type_symbol
  Mn
  Sn
loop_
 _atom_site_type_symbol
 _atom_site_label
 _atom_site_symmetry_multiplicity
 _atom_site_fract_x
 _atom_site_fract_y
 _atom_site_fract_z
 _atom_site_occupancy
  Mn  Mn0  1  0.25000000  0.75000000  0.50000000  1
  Mn  Mn1  1  0.50000000  0.50000000  0.00000000  1
  Mn  Mn2  1  0.75000000  0.25000000  0.50000000  1
  Sn  Sn0  1  0.00000000  0.00000000  0.00000000  1
