# generated using pymatgen
data_970_Nb4W8
_symmetry_space_group_name_H-M   'Pnma'
_cell_length_a   5.46027603
_cell_length_b   4.58896459
_cell_length_c   8.12102411
_cell_angle_alpha   90.00000000
_cell_angle_beta   90.00000000
_cell_angle_gamma   90.00000000
_chemical_formula_structural   Nb4W8
_chemical_formula_sum   'Nb4 W8'
_cell_volume   203.48860957
loop_
 _symmetry_equiv_pos_site_id
 _symmetry_equiv_pos_as_xyz
  1  'x, y, z'
loop_
 _atom_type_symbol
  Nb
  W
loop_
 _atom_site_type_symbol
 _atom_site_label
 _atom_site_symmetry_multiplicity
 _atom_site_fract_x
 _atom_site_fract_y
 _atom_site_fract_z
 _atom_site_occupancy
  Nb  Nb0  1  0.66957742  0.25000000  0.58198250  1
  Nb  Nb1  1  0.83042258  0.75000000  0.08198250  1
  Nb  Nb2  1  0.16957742  0.25000000  0.91801750  1
  Nb  Nb3  1  0.33042258  0.75000000  0.41801750  1
  W  W0  1  0.01175438  0.25000000  0.25430522  1
  W  W1  1  0.48824562  0.75000000  0.75430522  1
  W  W2  1  0.51175438  0.25000000  0.24569478  1
  W  W3  1  0.98824562  0.75000000  0.74569478  1
  W  W4  1  0.16832214  0.25000000  0.57565216  1
  W  W5  1  0.33167786  0.75000000  0.07565216  1
  W  W6  1  0.66832214  0.25000000  0.92434784  1
  W  W7  1  0.83167786  0.75000000  0.42434784  1
