# generated using pymatgen
data_974_AgMn8
_symmetry_space_group_name_H-M   'I4/mmm'
_cell_length_a   5.68541523
_cell_length_b   5.68541523
_cell_length_c   7.63216616
_cell_angle_alpha   47.83981075
_cell_angle_beta   47.83981075
_cell_angle_gamma   84.32037849
_chemical_formula_structural   AgMn8
_chemical_formula_sum   'Ag1 Mn8'
_cell_volume   104.18386365
loop_
 _symmetry_equiv_pos_site_id
 _symmetry_equiv_pos_as_xyz
  1  'x, y, z'
loop_
 _atom_type_symbol
  Ag
  Mn
loop_
 _atom_site_type_symbol
 _atom_site_label
 _atom_site_symmetry_multiplicity
 _atom_site_fract_x
 _atom_site_fract_y
 _atom_site_fract_z
 _atom_site_occupancy
  Ag  Ag0  1  0.00000000  0.00000000  0.00000000  1
  Mn  Mn0  1  1.00000000  1.00000000  0.34452315  1
  Mn  Mn1  1  1.00000000  1.00000000  0.65547685  1
  Mn  Mn2  1  0.34452315  0.65547685  1.00000000  1
  Mn  Mn3  1  0.31608520  0.68391480  0.31608520  1
  Mn  Mn4  1  0.31608520  0.68391480  0.68391480  1
  Mn  Mn5  1  0.65547685  0.34452315  1.00000000  1
  Mn  Mn6  1  0.68391480  0.31608520  0.31608520  1
  Mn  Mn7  1  0.68391480  0.31608520  0.68391480  1
