# generated using pymatgen
data_978_AlIn3
_symmetry_space_group_name_H-M   'Pmm2'
_cell_length_a   3.25126629
_cell_length_b   5.33034338
_cell_length_c   5.73275618
_cell_angle_alpha   90.00000000
_cell_angle_beta   90.00000000
_cell_angle_gamma   90.00000000
_chemical_formula_structural   AlIn3
_chemical_formula_sum   'Al1 In3'
_cell_volume   99.35076133
loop_
 _symmetry_equiv_pos_site_id
 _symmetry_equiv_pos_as_xyz
  1  'x, y, z'
loop_
 _atom_type_symbol
  Al
  In
loop_
 _atom_site_type_symbol
 _atom_site_label
 _atom_site_symmetry_multiplicity
 _atom_site_fract_x
 _atom_site_fract_y
 _atom_site_fract_z
 _atom_site_occupancy
  Al  Al0  1  0.00000000  0.00000000  0.00334555  1
  In  In0  1  0.50000000  0.00000000  0.50483383  1
  In  In1  1  0.50000000  0.50000000  0.83710685  1
  In  In2  1  0.00000000  0.50000000  0.32138044  1
