# generated using pymatgen
data_980_CrTa
_symmetry_space_group_name_H-M   'Cmmm'
_cell_length_a   3.15099066
_cell_length_b   4.57188628
_cell_length_c   4.17898359
_cell_angle_alpha   90.00000000
_cell_angle_beta   90.00000000
_cell_angle_gamma   90.00000000
_chemical_formula_structural   CrTa
_chemical_formula_sum   'Cr2 Ta2'
_cell_volume   60.20231627
loop_
 _symmetry_equiv_pos_site_id
 _symmetry_equiv_pos_as_xyz
  1  'x, y, z'
loop_
 _atom_type_symbol
  Cr
  Ta
loop_
 _atom_site_type_symbol
 _atom_site_label
 _atom_site_symmetry_multiplicity
 _atom_site_fract_x
 _atom_site_fract_y
 _atom_site_fract_z
 _atom_site_occupancy
  Cr  Cr0  1  0.00000000  0.00000000  0.91576945  1
  Cr  Cr1  1  0.50000000  0.50000000  0.91756388  1
  Ta  Ta0  1  0.00000000  0.50000000  0.41830672  1
  Ta  Ta1  1  0.50000000  0.00000000  0.41502662  1
