# generated using pymatgen
data_984_IrV3
_symmetry_space_group_name_H-M   'P4/mmm'
_cell_length_a   4.25433881
_cell_length_b   4.25433881
_cell_length_c   2.99415189
_cell_angle_alpha   90.00000000
_cell_angle_beta   90.00000000
_cell_angle_gamma   90.00000000
_chemical_formula_structural   IrV3
_chemical_formula_sum   'Ir1 V3'
_cell_volume   54.19234878
loop_
 _symmetry_equiv_pos_site_id
 _symmetry_equiv_pos_as_xyz
  1  'x, y, z'
loop_
 _atom_type_symbol
  Ir
  V
loop_
 _atom_site_type_symbol
 _atom_site_label
 _atom_site_symmetry_multiplicity
 _atom_site_fract_x
 _atom_site_fract_y
 _atom_site_fract_z
 _atom_site_occupancy
  Ir  Ir0  1  0.00000000  0.00000000  0.00000000  1
  V  V0  1  0.00000000  0.50000000  0.50000000  1
  V  V1  1  0.50000000  0.00000000  0.50000000  1
  V  V2  1  0.50000000  0.50000000  0.00000000  1
