# generated using pymatgen
data_994_Ga3Pt5
_symmetry_space_group_name_H-M   'Cmmm'
_cell_length_a   5.55525510
_cell_length_b   5.55525510
_cell_length_c   3.99758139
_cell_angle_alpha   90.00000000
_cell_angle_beta   90.00000000
_cell_angle_gamma   94.40154285
_chemical_formula_structural   Ga3Pt5
_chemical_formula_sum   'Ga3 Pt5'
_cell_volume   123.00494316
loop_
 _symmetry_equiv_pos_site_id
 _symmetry_equiv_pos_as_xyz
  1  'x, y, z'
loop_
 _atom_type_symbol
  Ga
  Pt
loop_
 _atom_site_type_symbol
 _atom_site_label
 _atom_site_symmetry_multiplicity
 _atom_site_fract_x
 _atom_site_fract_y
 _atom_site_fract_z
 _atom_site_occupancy
  Ga  Ga0  1  0.00000000  0.00000000  0.00000000  1
  Ga  Ga1  1  0.28773321  0.71226679  0.50000000  1
  Ga  Ga2  1  0.71226679  0.28773321  0.50000000  1
  Pt  Pt0  1  0.50000000  0.50000000  0.00000000  1
  Pt  Pt1  1  0.00000000  0.50000000  0.00000000  1
  Pt  Pt2  1  0.50000000  0.00000000  0.00000000  1
  Pt  Pt3  1  0.79243751  0.79243751  0.50000000  1
  Pt  Pt4  1  0.20756249  0.20756249  0.50000000  1
