# generated using pymatgen
data_998_KI
_symmetry_space_group_name_H-M   'R -3 m'
_cell_length_a   5.11936136
_cell_length_b   5.11936136
_cell_length_c   5.11936158
_cell_angle_alpha   58.66721191
_cell_angle_beta   58.66721191
_cell_angle_gamma   58.66719363
_chemical_formula_structural   KI
_chemical_formula_sum   'I1 K1'
_cell_volume   91.98099461
loop_
 _symmetry_equiv_pos_site_id
 _symmetry_equiv_pos_as_xyz
  1  'x, y, z'
loop_
 _atom_type_symbol
  I
  K
loop_
 _atom_site_type_symbol
 _atom_site_label
 _atom_site_symmetry_multiplicity
 _atom_site_fract_x
 _atom_site_fract_y
 _atom_site_fract_z
 _atom_site_occupancy
  I  I0  1  0.00000000  0.00000000  0.00000000  1
  K  K0  1  0.49999963  0.49999963  0.49999975  1
