# generated using pymatgen
data_999_K3Na
_symmetry_space_group_name_H-M   'I4/mmm'
_cell_length_a   7.71860149
_cell_length_b   7.71860149
_cell_length_c   7.71860149
_cell_angle_alpha   131.77590792
_cell_angle_beta   131.77590792
_cell_angle_gamma   70.58318705
_chemical_formula_structural   K3Na
_chemical_formula_sum   'K3 Na1'
_cell_volume   250.56246925
loop_
 _symmetry_equiv_pos_site_id
 _symmetry_equiv_pos_as_xyz
  1  'x, y, z'
loop_
 _atom_type_symbol
  K
  Na
loop_
 _atom_site_type_symbol
 _atom_site_label
 _atom_site_symmetry_multiplicity
 _atom_site_fract_x
 _atom_site_fract_y
 _atom_site_fract_z
 _atom_site_occupancy
  K  K0  1  0.25000000  0.75000000  0.50000000  1
  K  K1  1  0.50000000  0.50000000  0.00000000  1
  K  K2  1  0.75000000  0.25000000  0.50000000  1
  Na  Na0  1  0.00000000  0.00000000  0.00000000  1
