# generated using pymatgen
data_99_Al2Pd2
_symmetry_space_group_name_H-M   'P4/nmm'
_cell_length_a   3.34262681
_cell_length_b   3.34262681
_cell_length_c   5.43740679
_cell_angle_alpha   90.00000000
_cell_angle_beta   90.00000000
_cell_angle_gamma   90.00000000
_chemical_formula_structural   Al2Pd2
_chemical_formula_sum   'Al2 Pd2'
_cell_volume   60.75298338
loop_
 _symmetry_equiv_pos_site_id
 _symmetry_equiv_pos_as_xyz
  1  'x, y, z'
loop_
 _atom_type_symbol
  Al
  Pd
loop_
 _atom_site_type_symbol
 _atom_site_label
 _atom_site_symmetry_multiplicity
 _atom_site_fract_x
 _atom_site_fract_y
 _atom_site_fract_z
 _atom_site_occupancy
  Al  Al0  1  0.00000000  0.00000000  0.97188805  1
  Al  Al1  1  0.50000000  0.50000000  0.27811195  1
  Pd  Pd0  1  0.00000000  0.00000000  0.45993680  1
  Pd  Pd1  1  0.50000000  0.50000000  0.79006320  1
