# generated using pymatgen
data_9_Mn8Sb
_symmetry_space_group_name_H-M   'I4/mmm'
_cell_length_a   5.71996368
_cell_length_b   5.71996368
_cell_length_c   5.71996368
_cell_angle_alpha   95.72145397
_cell_angle_beta   95.72145397
_cell_angle_gamma   143.18890253
_chemical_formula_structural   Mn8Sb
_chemical_formula_sum   'Mn8 Sb1'
_cell_volume   106.39755248
loop_
 _symmetry_equiv_pos_site_id
 _symmetry_equiv_pos_as_xyz
  1  'x, y, z'
loop_
 _atom_type_symbol
  Mn
  Sb
loop_
 _atom_site_type_symbol
 _atom_site_label
 _atom_site_symmetry_multiplicity
 _atom_site_fract_x
 _atom_site_fract_y
 _atom_site_fract_z
 _atom_site_occupancy
  Mn  Mn0  1  0.31509364  0.68490636  0.00000000  1
  Mn  Mn1  1  0.68490636  0.31509364  0.00000000  1
  Mn  Mn2  1  0.00000000  0.34947415  0.34947415  1
  Mn  Mn3  1  0.68490636  0.68490636  0.36981273  1
  Mn  Mn4  1  0.34947415  0.00000000  0.34947415  1
  Mn  Mn5  1  0.31509364  0.31509364  0.63018727  1
  Mn  Mn6  1  1.00000000  0.65052585  0.65052585  1
  Mn  Mn7  1  0.65052585  1.00000000  0.65052585  1
  Sb  Sb0  1  0.00000000  0.00000000  0.00000000  1
