# generated using pymatgen
data_6_Sn17P12
_symmetry_space_group_name_H-M   'I-43m'
_cell_length_a   9.63570852
_cell_length_b   9.63570852
_cell_length_c   9.63570852
_cell_angle_alpha   109.47122063
_cell_angle_beta   109.47122063
_cell_angle_gamma   109.47122063
_chemical_formula_structural   Sn17P12
_chemical_formula_sum   'P12 Sn17'
_cell_volume   688.69839699
loop_
 _symmetry_equiv_pos_site_id
 _symmetry_equiv_pos_as_xyz
  1  'x, y, z'
loop_
 _atom_type_symbol
  P
  Sn
loop_
 _atom_site_type_symbol
 _atom_site_label
 _atom_site_symmetry_multiplicity
 _atom_site_fract_x
 _atom_site_fract_y
 _atom_site_fract_z
 _atom_site_occupancy
  P  P0  1  0.14319308  0.79216470  0.14319308  1
  P  P1  1  0.35102838  0.20783530  0.35102838  1
  P  P2  1  0.85680692  0.00000000  0.64897162  1
  P  P3  1  0.64897162  0.00000000  0.85680692  1
  P  P4  1  0.85680692  0.64897162  0.00000000  1
  P  P5  1  0.64897162  0.85680692  0.00000000  1
  P  P6  1  0.35102838  0.35102838  0.20783530  1
  P  P7  1  0.14319308  0.14319308  0.79216470  1
  P  P8  1  0.00000000  0.64897162  0.85680692  1
  P  P9  1  1.00000000  0.85680692  0.64897162  1
  P  P10  1  0.79216470  0.14319308  0.14319308  1
  P  P11  1  0.20783530  0.35102838  0.35102838  1
  Sn  Sn0  1  0.69125791  0.28421958  0.69125791  1
  Sn  Sn1  1  0.40703834  0.71578042  0.40703834  1
  Sn  Sn2  1  0.30874209  0.00000000  0.59296166  1
  Sn  Sn3  1  0.59296166  0.00000000  0.30874209  1
  Sn  Sn4  1  0.30874209  0.59296166  0.00000000  1
  Sn  Sn5  1  0.59296166  0.30874209  0.00000000  1
  Sn  Sn6  1  0.40703834  0.40703834  0.71578042  1
  Sn  Sn7  1  0.69125791  0.69125791  0.28421958  1
  Sn  Sn8  1  1.00000000  0.59296166  0.30874209  1
  Sn  Sn9  1  1.00000000  0.30874209  0.59296166  1
  Sn  Sn10  1  0.28421958  0.69125791  0.69125791  1
  Sn  Sn11  1  0.71578042  0.40703834  0.40703834  1
  Sn  Sn12  1  1.00000000  0.34220363  0.00000000  1
  Sn  Sn13  1  0.65779637  0.65779637  0.65779637  1
  Sn  Sn14  1  1.00000000  0.00000000  0.34220363  1
  Sn  Sn15  1  0.34220363  0.00000000  0.00000000  1
  Sn  Sn16  1  0.00000000  0.00000000  0.00000000  1
